REMARK SMILES O=c1[nH]c(=S)[nH]c(-c2ccccc2)c1Cc1c(O)ccc2ccccc12
REMARK SMILES IDX 15 1 14 2 5 3 4 4 6 5 3 6 7 7 2 9 1 11 8 12 9 13 13 14 10 15
REMARK SMILES IDX 12 16 11 17 16 18 26 19 17 20 21 21 25 22 19 23 20 24 22 25
REMARK SMILES IDX 24 26 23 27 18 28
REMARK H PARENT 6 8 3 10 18 29
REMARK Flexibility Score: inf
ROOT
ATOM      1  C   UNL     1       0.246   0.794   1.383  1.00  0.00     0.083 C 
ENDROOT
BRANCH   1   2
ATOM      2  C   UNL     1       1.558   0.432   0.766  1.00  0.00     0.046 A 
ATOM      3  S   UNL     1       5.632  -0.386  -0.992  1.00  0.00    -0.040 S 
ATOM      4  C   UNL     1       4.131  -0.063  -0.333  1.00  0.00     0.177 A 
ATOM      5  N   UNL     1       3.079  -0.939  -0.448  1.00  0.00    -0.331 N 
ATOM      6  N   UNL     1       3.872   1.103   0.361  1.00  0.00    -0.299 N 
ATOM      7  C   UNL     1       1.832  -0.698   0.085  1.00  0.00     0.057 A 
ATOM      8  H   UNL     1       3.226  -1.810  -0.952  1.00  0.00     0.169 HD
ATOM      9  C   UNL     1       2.656   1.442   0.935  1.00  0.00     0.255 A 
ATOM     10  H   UNL     1       4.635   1.767   0.460  1.00  0.00     0.172 HD
ATOM     11  O   UNL     1       2.472   2.493   1.545  1.00  0.00    -0.269 OA
BRANCH   7  12
ATOM     12  C   UNL     1       0.833  -1.734  -0.131  1.00  0.00    -0.002 A 
ATOM     13  C   UNL     1       0.019  -1.692  -1.263  1.00  0.00     0.010 A 
ATOM     14  C   UNL     1       0.690  -2.768   0.794  1.00  0.00     0.010 A 
ATOM     15  C   UNL     1      -0.939  -2.684  -1.469  1.00  0.00     0.001 A 
ATOM     16  C   UNL     1      -0.268  -3.760   0.587  1.00  0.00     0.001 A 
ATOM     17  C   UNL     1      -1.082  -3.719  -0.545  1.00  0.00     0.000 A 
ENDBRANCH   7  12
ENDBRANCH   1   2
BRANCH   1  18
ATOM     18  C   UNL     1      -0.777   1.221   0.374  1.00  0.00     0.006 A 
ATOM     19  C   UNL     1      -2.097   0.745   0.428  1.00  0.00    -0.011 A 
ATOM     20  C   UNL     1      -0.382   2.111  -0.626  1.00  0.00     0.119 A 
ATOM     21  C   UNL     1      -3.029   1.176  -0.546  1.00  0.00    -0.018 A 
ATOM     22  C   UNL     1      -2.513  -0.151   1.426  1.00  0.00     0.009 A 
ATOM     23  C   UNL     1      -1.298   2.535  -1.583  1.00  0.00     0.047 A 
ATOM     24  C   UNL     1      -2.614   2.072  -1.545  1.00  0.00     0.012 A 
ATOM     25  C   UNL     1      -4.349   0.700  -0.492  1.00  0.00     0.009 A 
ATOM     26  C   UNL     1      -3.828  -0.615   1.465  1.00  0.00     0.001 A 
ATOM     27  C   UNL     1      -4.745  -0.190   0.507  1.00  0.00     0.001 A 
BRANCH  20  28
ATOM     28  O   UNL     1       0.898   2.577  -0.683  1.00  0.00    -0.508 OA
ATOM     29  H   UNL     1       0.984   3.178  -1.443  1.00  0.00     0.293 HD
ENDBRANCH  20  28
ENDBRANCH   1  18
TORSDOF 4
