3246390
  -OEChem-12142400403D

 42 45  0     0  0  0  0  0  0999 V2000
    5.6322   -0.3861   -0.9919 S   0  0  0  0  0  0  0  0  0  0  0  0
    0.8979    2.5767   -0.6835 O   0  0  0  0  0  0  0  0  0  0  0  0
    2.4723    2.4925    1.5452 O   0  0  0  0  0  0  0  0  0  0  0  0
    3.0788   -0.9394   -0.4483 N   0  0  0  0  0  0  0  0  0  0  0  0
    3.8721    1.1025    0.3611 N   0  0  0  0  0  0  0  0  0  0  0  0
    0.2464    0.7938    1.3829 C   0  0  0  0  0  0  0  0  0  0  0  0
   -0.7772    1.2211    0.3736 C   0  0  0  0  0  0  0  0  0  0  0  0
    1.5577    0.4325    0.7658 C   0  0  0  0  0  0  0  0  0  0  0  0
   -2.0971    0.7445    0.4276 C   0  0  0  0  0  0  0  0  0  0  0  0
    1.8324   -0.6981    0.0847 C   0  0  0  0  0  0  0  0  0  0  0  0
   -3.0292    1.1764   -0.5459 C   0  0  0  0  0  0  0  0  0  0  0  0
   -0.3818    2.1107   -0.6258 C   0  0  0  0  0  0  0  0  0  0  0  0
    2.6565    1.4416    0.9352 C   0  0  0  0  0  0  0  0  0  0  0  0
    0.8331   -1.7340   -0.1310 C   0  0  0  0  0  0  0  0  0  0  0  0
   -2.5125   -0.1512    1.4264 C   0  0  0  0  0  0  0  0  0  0  0  0
   -2.6139    2.0721   -1.5447 C   0  0  0  0  0  0  0  0  0  0  0  0
   -1.2985    2.5354   -1.5831 C   0  0  0  0  0  0  0  0  0  0  0  0
   -4.3492    0.6998   -0.4919 C   0  0  0  0  0  0  0  0  0  0  0  0
    4.1310   -0.0634   -0.3333 C   0  0  0  0  0  0  0  0  0  0  0  0
   -3.8279   -0.6145    1.4648 C   0  0  0  0  0  0  0  0  0  0  0  0
   -4.7445   -0.1899    0.5075 C   0  0  0  0  0  0  0  0  0  0  0  0
    0.0192   -1.6918   -1.2626 C   0  0  0  0  0  0  0  0  0  0  0  0
    0.6904   -2.7678    0.7940 C   0  0  0  0  0  0  0  0  0  0  0  0
   -0.9388   -2.6844   -1.4693 C   0  0  0  0  0  0  0  0  0  0  0  0
   -0.2676   -3.7605    0.5870 C   0  0  0  0  0  0  0  0  0  0  0  0
   -1.0821   -3.7187   -0.5446 C   0  0  0  0  0  0  0  0  0  0  0  0
   -0.0399   -0.0684    1.9859 H   0  0  0  0  0  0  0  0  0  0  0  0
    0.3442    1.6019    2.1186 H   0  0  0  0  0  0  0  0  0  0  0  0
   -1.8702   -0.5175    2.2178 H   0  0  0  0  0  0  0  0  0  0  0  0
   -3.3135    2.4171   -2.3032 H   0  0  0  0  0  0  0  0  0  0  0  0
   -1.0040    3.2278   -2.3673 H   0  0  0  0  0  0  0  0  0  0  0  0
    3.2258   -1.8100   -0.9517 H   0  0  0  0  0  0  0  0  0  0  0  0
   -5.0825    1.0182   -1.2298 H   0  0  0  0  0  0  0  0  0  0  0  0
    4.6345    1.7666    0.4595 H   0  0  0  0  0  0  0  0  0  0  0  0
   -4.1383   -1.3046    2.2441 H   0  0  0  0  0  0  0  0  0  0  0  0
   -5.7685   -0.5504    0.5384 H   0  0  0  0  0  0  0  0  0  0  0  0
    0.1207   -0.8954   -1.9960 H   0  0  0  0  0  0  0  0  0  0  0  0
    1.3171   -2.8141    1.6814 H   0  0  0  0  0  0  0  0  0  0  0  0
    0.9843    3.1777   -1.4433 H   0  0  0  0  0  0  0  0  0  0  0  0
   -1.5733   -2.6515   -2.3501 H   0  0  0  0  0  0  0  0  0  0  0  0
   -0.3799   -4.5654    1.3073 H   0  0  0  0  0  0  0  0  0  0  0  0
   -1.8286   -4.4910   -0.7052 H   0  0  0  0  0  0  0  0  0  0  0  0
  1 19  2  0  0  0  0
  2 12  1  0  0  0  0
  2 39  1  0  0  0  0
  3 13  2  0  0  0  0
  4 10  1  0  0  0  0
  4 19  1  0  0  0  0
  4 32  1  0  0  0  0
  5 13  1  0  0  0  0
  5 19  1  0  0  0  0
  5 34  1  0  0  0  0
  6  7  1  0  0  0  0
  6  8  1  0  0  0  0
  6 27  1  0  0  0  0
  6 28  1  0  0  0  0
  7  9  1  0  0  0  0
  7 12  2  0  0  0  0
  8 10  2  0  0  0  0
  8 13  1  0  0  0  0
  9 11  1  0  0  0  0
  9 15  2  0  0  0  0
 10 14  1  0  0  0  0
 11 16  1  0  0  0  0
 11 18  2  0  0  0  0
 12 17  1  0  0  0  0
 14 22  2  0  0  0  0
 14 23  1  0  0  0  0
 15 20  1  0  0  0  0
 15 29  1  0  0  0  0
 16 17  2  0  0  0  0
 16 30  1  0  0  0  0
 17 31  1  0  0  0  0
 18 21  1  0  0  0  0
 18 33  1  0  0  0  0
 20 21  2  0  0  0  0
 20 35  1  0  0  0  0
 21 36  1  0  0  0  0
 22 24  1  0  0  0  0
 22 37  1  0  0  0  0
 23 25  2  0  0  0  0
 23 38  1  0  0  0  0
 24 26  2  0  0  0  0
 24 40  1  0  0  0  0
 25 26  1  0  0  0  0
 25 41  1  0  0  0  0
 26 42  1  0  0  0  0
M  END
> <PUBCHEM_COMPOUND_CID>
3246390

> <PUBCHEM_CONFORMER_RMSD>
0.6

> <PUBCHEM_CONFORMER_DIVERSEORDER>
2
4
11
5
6
7
1
13
8
3
10
9
12

> <PUBCHEM_MMFF94_PARTIAL_CHARGES>
38
1 -0.38
10 0.08
12 0.08
13 0.62
14 0.03
15 -0.15
16 -0.15
17 -0.15
18 -0.15
19 0.5
2 -0.53
20 -0.15
21 -0.15
22 -0.15
23 -0.15
24 -0.15
25 -0.15
26 -0.15
29 0.15
3 -0.57
30 0.15
31 0.15
32 0.37
33 0.15
34 0.37
35 0.15
36 0.15
37 0.15
38 0.15
39 0.45
4 -0.54
40 0.15
41 0.15
42 0.15
5 -0.49
6 0.28
7 -0.14
8 -0.12

> <PUBCHEM_EFFECTIVE_ROTOR_COUNT>
3

> <PUBCHEM_PHARMACOPHORE_FEATURES>
9
1 1 acceptor
1 2 donor
1 3 acceptor
1 4 donor
1 5 donor
6 14 22 23 24 25 26 rings
6 4 5 8 10 13 19 rings
6 7 9 11 12 16 17 rings
6 9 11 15 18 20 21 rings

> <PUBCHEM_HEAVY_ATOM_COUNT>
26

> <PUBCHEM_ATOM_DEF_STEREO_COUNT>
0

> <PUBCHEM_ATOM_UDEF_STEREO_COUNT>
0

> <PUBCHEM_BOND_DEF_STEREO_COUNT>
0

> <PUBCHEM_BOND_UDEF_STEREO_COUNT>
0

> <PUBCHEM_ISOTOPIC_ATOM_COUNT>
0

> <PUBCHEM_COMPONENT_COUNT>
1

> <PUBCHEM_CACTVS_TAUTO_COUNT>
18

> <PUBCHEM_CONFORMER_ID>
0031893600000002

> <PUBCHEM_MMFF94_ENERGY>
84.2481

> <PUBCHEM_FEATURE_SELFOVERLAP>
45.742

> <PUBCHEM_SHAPE_FINGERPRINT>
10064457 181 18129669715527192121
10906281 52 18041576728262718573
11488393 25 17912938179432948174
11578080 2 14275395523029919581
12011746 2 18409169900476649367
12035758 1 18342740741153381018
12156800 1 17909019777794711079
12236239 1 16415759726039993009
12422481 6 17980505643367257483
13140716 1 18270112560694536874
13149001 5 18202564003854974520
13402501 40 18335427841787649827
14223421 5 18046067056092666375
14790565 3 18339091418721560188
15209289 33 17989212516421063664
15324884 4 18334568083861655713
16945 1 17988639671095074976
17138139 8 17269719754732120687
17492 54 18337090312344157567
17980427 23 16878242877929832269
19591789 44 18410853222698445302
20261772 1 18337673121550712403
20691752 17 18263911288837686975
20905425 154 18045217137777985091
21033648 29 18341036467712921504
22393880 68 18200015284214359789
23227448 37 18264775539917158196
23419403 2 16839150966164907238
23557571 272 17822581508252971269
23559900 14 17825942633272398900
238 59 18052508033751978117
2818148 4 17684673281858076950
3052486 1 18191015909878744395
3298306 158 18265043652823349298
3383291 50 18057894533350354590
3524813 1 18411983550500000112
3729539 64 18126018070288003454
4340502 62 17988086703215329419
469060 322 17969764449534077199
6438718 38 17842558732053766511
6669772 16 18271514356753240954
81228 2 17906716352273329194

> <PUBCHEM_SHAPE_MULTIPOLES>
517.22
7.76
3.88
1.5
3.88
3.05
0.04
-1.92
0.38
-0.44
0.75
-0.44
-0.28
1.18

> <PUBCHEM_SHAPE_SELFOVERLAP>
1149.436

> <PUBCHEM_SHAPE_VOLUME>
276.5

> <PUBCHEM_COORDINATE_TYPE>
2
5
10

$$$$
