
 OpenBabel12142411173D

108108  0  0  1  0  0  0  0  0999 V2000
    8.0372   -3.2488   -0.9020 N   0  0  0  0  0  0  0  0  0  0  0  0
    8.4925   -2.2503   -1.5621 C   0  0  0  0  0  0  0  0  0  0  0  0
    9.2043   -1.2542   -1.0124 N   0  0  0  0  0  0  0  0  0  0  0  0
    8.2061   -2.1416   -2.8722 N   0  0  0  0  0  0  0  0  0  0  0  0
    9.0572   -1.6060   -3.9240 C   0  0  0  0  0  0  0  0  0  0  0  0
   10.0290   -2.6760   -4.4617 C   0  0  0  0  0  0  0  0  0  0  0  0
   10.8568   -2.2764   -5.7215 C   0  0  0  0  0  0  0  0  0  0  0  0
   11.9937   -1.3128   -5.3884 C   0  0  0  0  0  0  0  0  0  0  0  0
   12.6227   -0.4215   -6.5387 C   0  0  2  0  0  0  0  0  0  0  0  0
   11.9774   -0.3514   -7.4229 H   0  0  0  0  0  0  0  0  0  0  0  0
   14.0072   -1.0812   -7.0130 N   0  0  0  0  0  0  0  0  0  0  0  0
   14.5375   -1.1624   -8.3107 C   0  0  0  0  0  0  0  0  0  0  0  0
   13.8158   -0.8832   -9.2742 O   0  0  0  0  0  0  0  0  0  0  0  0
   16.1218   -1.4514   -8.6098 C   0  0  0  0  0  0  0  0  0  0  0  0
   17.0318   -2.7262   -8.5086 C   0  0  0  0  0  0  0  0  0  0  0  0
   17.7826   -2.9524   -7.1905 C   0  0  0  0  0  0  0  0  0  0  0  0
   17.4098   -4.2709   -6.4425 C   0  0  0  0  0  0  0  0  0  0  0  0
   16.5018   -3.7850   -5.3505 C   0  0  0  0  0  0  0  0  0  0  0  0
   16.0110   -4.4549   -4.1095 C   0  0  0  0  0  0  0  0  0  0  0  0
   15.2256   -3.4378   -3.2370 C   0  0  0  0  0  0  0  0  0  0  0  0
   14.4796   -3.8697   -2.3555 O   0  0  0  0  0  0  0  0  0  0  0  0
   15.3178   -2.0668   -3.3667 N   0  0  0  0  0  0  0  0  0  0  0  0
   16.0529   -1.1851   -4.2999 C   0  0  0  0  0  0  0  0  0  0  0  0
   12.5055    1.0127   -5.7308 C   0  0  0  0  0  0  0  0  0  0  0  0
   13.0830    1.2218   -4.6481 O   0  0  0  0  0  0  0  0  0  0  0  0
   11.3941    1.8050   -5.7415 N   0  0  0  0  0  0  0  0  0  0  0  0
   11.3520    3.1519   -6.3602 C   0  0  2  0  0  0  0  0  0  0  0  0
   10.6824    3.7270   -5.6962 H   0  0  0  0  0  0  0  0  0  0  0  0
   10.6407    3.0913   -7.6950 C   0  0  0  0  0  0  0  0  0  0  0  0
    9.2349    2.4689   -7.5317 C   0  0  0  0  0  0  0  0  0  0  0  0
    8.2373    3.2935   -6.7019 C   0  0  0  0  0  0  0  0  0  0  0  0
    7.9427    4.6527   -7.3428 C   0  0  0  0  0  0  0  0  0  0  0  0
    6.7852    5.2954   -6.7383 N   0  0  0  0  0  0  0  0  0  0  0  0
    5.4670    5.0034   -7.0208 C   0  0  0  0  0  0  0  0  0  0  0  0
    4.9348    4.1912   -8.3825 S   0  0  0  0  0  0  0  0  0  0  0  0
    4.6506    5.4046   -5.9759 N   0  0  0  0  0  0  0  0  0  0  0  0
    3.3984    4.7194   -5.6702 C   0  0  0  0  0  0  0  0  0  0  0  0
    2.7176    5.2178   -4.4092 C   0  0  0  0  0  0  0  0  0  0  0  0
    3.5961    4.9728   -3.2141 C   0  0  0  0  0  0  0  0  0  0  0  0
    3.3655    3.8027   -2.5830 O   0  0  0  0  0  0  0  0  0  0  0  0
    4.4902    5.7342   -2.8763 O   0  0  0  0  0  0  0  0  0  0  0  0
   12.6237    3.9991   -6.2170 C   0  0  0  0  0  0  0  0  0  0  0  0
   13.0188    4.4004   -5.1054 O   0  0  0  0  0  0  0  0  0  0  0  0
   13.4416    4.0968   -7.3399 N   0  0  0  0  0  0  0  0  0  0  0  0
   14.8729    4.4340   -7.2674 C   0  0  1  0  0  0  0  0  0  0  0  0
   15.0464    5.1018   -6.4167 H   0  0  0  0  0  0  0  0  0  0  0  0
   15.7070    3.1349   -7.1270 C   0  0  0  0  0  0  0  0  0  0  0  0
   15.5236    2.4676   -5.7481 C   0  0  0  0  0  0  0  0  0  0  0  0
   16.0994    1.0487   -5.5893 C   0  0  0  0  0  0  0  0  0  0  0  0
   15.6549    0.2792   -4.3038 C   0  0  0  0  0  0  0  0  0  0  0  0
   15.2345    5.2008   -8.5527 C   0  0  0  0  0  0  0  0  0  0  0  0
   16.4858    5.7402   -8.6107 N   0  0  0  0  0  0  0  0  0  0  0  0
   14.4586    5.3311   -9.5034 O   0  0  0  0  0  0  0  0  0  0  0  0
    8.3620   -3.1752    0.0852 H   0  0  0  0  0  0  0  0  0  0  0  0
    9.1624   -1.2038   -0.0021 H   0  0  0  0  0  0  0  0  0  0  0  0
    8.9859   -0.3530   -1.4213 H   0  0  0  0  0  0  0  0  0  0  0  0
    7.6673   -2.9623   -3.1649 H   0  0  0  0  0  0  0  0  0  0  0  0
    9.5865   -0.7132   -3.5735 H   0  0  0  0  0  0  0  0  0  0  0  0
    8.3997   -1.2773   -4.7364 H   0  0  0  0  0  0  0  0  0  0  0  0
    9.4402   -3.5635   -4.7211 H   0  0  0  0  0  0  0  0  0  0  0  0
   10.7060   -2.9802   -3.6542 H   0  0  0  0  0  0  0  0  0  0  0  0
   10.1917   -1.8524   -6.4800 H   0  0  0  0  0  0  0  0  0  0  0  0
   11.3012   -3.1875   -6.1387 H   0  0  0  0  0  0  0  0  0  0  0  0
   11.5717   -0.6647   -4.6115 H   0  0  0  0  0  0  0  0  0  0  0  0
   12.7957   -1.8542   -4.8720 H   0  0  0  0  0  0  0  0  0  0  0  0
   14.2121   -1.9318   -6.5066 H   0  0  0  0  0  0  0  0  0  0  0  0
   16.1705   -1.2663   -9.7013 H   0  0  0  0  0  0  0  0  0  0  0  0
   16.6901   -0.6074   -8.2002 H   0  0  0  0  0  0  0  0  0  0  0  0
   17.8667   -2.5524   -9.2188 H   0  0  0  0  0  0  0  0  0  0  0  0
   16.5553   -3.6353   -8.8827 H   0  0  0  0  0  0  0  0  0  0  0  0
   17.6087   -2.0611   -6.5759 H   0  0  0  0  0  0  0  0  0  0  0  0
   18.8721   -2.9491   -7.3365 H   0  0  0  0  0  0  0  0  0  0  0  0
   18.3079   -4.7289   -6.0112 H   0  0  0  0  0  0  0  0  0  0  0  0
   16.9302   -5.0048   -7.0953 H   0  0  0  0  0  0  0  0  0  0  0  0
   15.6221   -3.3802   -5.8575 H   0  0  0  0  0  0  0  0  0  0  0  0
   17.1494   -3.0359   -4.9101 H   0  0  0  0  0  0  0  0  0  0  0  0
   16.8390   -4.8488   -3.5120 H   0  0  0  0  0  0  0  0  0  0  0  0
   15.3408   -5.2820   -4.3666 H   0  0  0  0  0  0  0  0  0  0  0  0
   14.7113   -1.6011   -2.6977 H   0  0  0  0  0  0  0  0  0  0  0  0
   15.8124   -1.5290   -5.2948 H   0  0  0  0  0  0  0  0  0  0  0  0
   17.1241   -1.2641   -4.1054 H   0  0  0  0  0  0  0  0  0  0  0  0
   11.3206    2.0261   -4.7530 H   0  0  0  0  0  0  0  0  0  0  0  0
   10.5687    4.0867   -8.1454 H   0  0  0  0  0  0  0  0  0  0  0  0
   11.2223    2.4702   -8.3834 H   0  0  0  0  0  0  0  0  0  0  0  0
    9.3218    1.4775   -7.0672 H   0  0  0  0  0  0  0  0  0  0  0  0
    8.8122    2.2935   -8.5253 H   0  0  0  0  0  0  0  0  0  0  0  0
    8.5857    3.4345   -5.6703 H   0  0  0  0  0  0  0  0  0  0  0  0
    7.3151    2.7066   -6.6045 H   0  0  0  0  0  0  0  0  0  0  0  0
    7.7783    4.5364   -8.4170 H   0  0  0  0  0  0  0  0  0  0  0  0
    8.7914    5.3288   -7.2007 H   0  0  0  0  0  0  0  0  0  0  0  0
    6.9658    6.0596   -6.1007 H   0  0  0  0  0  0  0  0  0  0  0  0
    5.1531    5.7693   -5.1722 H   0  0  0  0  0  0  0  0  0  0  0  0
    3.6322    3.6519   -5.5722 H   0  0  0  0  0  0  0  0  0  0  0  0
    2.7201    4.8410   -6.5212 H   0  0  0  0  0  0  0  0  0  0  0  0
    1.7568    4.7109   -4.2671 H   0  0  0  0  0  0  0  0  0  0  0  0
    2.5030    6.2902   -4.4648 H   0  0  0  0  0  0  0  0  0  0  0  0
    2.6541    3.2557   -2.9658 H   0  0  0  0  0  0  0  0  0  0  0  0
   13.0129    4.1118   -8.2657 H   0  0  0  0  0  0  0  0  0  0  0  0
   16.7697    3.3397   -7.2865 H   0  0  0  0  0  0  0  0  0  0  0  0
   15.3943    2.4395   -7.9210 H   0  0  0  0  0  0  0  0  0  0  0  0
   14.4609    2.4076   -5.6197 H   0  0  0  0  0  0  0  0  0  0  0  0
   15.8848    3.1203   -4.9522 H   0  0  0  0  0  0  0  0  0  0  0  0
   17.1915    1.0993   -5.6175 H   0  0  0  0  0  0  0  0  0  0  0  0
   15.8016    0.4825   -6.4702 H   0  0  0  0  0  0  0  0  0  0  0  0
   14.5905    0.1790   -4.2474 H   0  0  0  0  0  0  0  0  0  0  0  0
   15.9599    0.8001   -3.3989 H   0  0  0  0  0  0  0  0  0  0  0  0
   17.0845    5.8286   -7.8003 H   0  0  0  0  0  0  0  0  0  0  0  0
   16.7070    6.3001   -9.4261 H   0  0  0  0  0  0  0  0  0  0  0  0
  1  2  2  0  0  0  0
  1 54  1  0  0  0  0
  2  3  1  0  0  0  0
  2  4  1  0  0  0  0
  3 55  1  0  0  0  0
  3 56  1  0  0  0  0
  4  5  1  0  0  0  0
  4 57  1  0  0  0  0
  5  6  1  0  0  0  0
  5 58  1  0  0  0  0
  5 59  1  0  0  0  0
  6  7  1  0  0  0  0
  6 60  1  0  0  0  0
  6 61  1  0  0  0  0
  7  8  1  0  0  0  0
  7 62  1  0  0  0  0
  7 63  1  0  0  0  0
  8 64  1  0  0  0  0
  8 65  1  0  0  0  0
  9 11  1  0  0  0  0
  9 24  1  0  0  0  0
  9 10  1  6  0  0  0
  9  8  1  0  0  0  0
 11 12  1  0  0  0  0
 11 66  1  0  0  0  0
 12 13  2  0  0  0  0
 12 14  1  0  0  0  0
 14 15  1  0  0  0  0
 14 67  1  0  0  0  0
 14 68  1  0  0  0  0
 15 16  1  0  0  0  0
 15 69  1  0  0  0  0
 15 70  1  0  0  0  0
 16 17  1  0  0  0  0
 16 71  1  0  0  0  0
 16 72  1  0  0  0  0
 17 18  1  0  0  0  0
 17 73  1  0  0  0  0
 17 74  1  0  0  0  0
 18 19  1  0  0  0  0
 18 75  1  0  0  0  0
 18 76  1  0  0  0  0
 19 20  1  0  0  0  0
 19 77  1  0  0  0  0
 19 78  1  0  0  0  0
 20 21  2  0  0  0  0
 20 22  1  0  0  0  0
 22 23  1  0  0  0  0
 22 79  1  0  0  0  0
 23 50  1  0  0  0  0
 23 80  1  0  0  0  0
 23 81  1  0  0  0  0
 24 25  2  0  0  0  0
 24 26  1  0  0  0  0
 26 27  1  0  0  0  0
 26 82  1  0  0  0  0
 27 42  1  0  0  0  0
 27 29  1  0  0  0  0
 27 28  1  1  0  0  0
 29 30  1  0  0  0  0
 29 83  1  0  0  0  0
 29 84  1  0  0  0  0
 30 31  1  0  0  0  0
 30 85  1  0  0  0  0
 30 86  1  0  0  0  0
 31 32  1  0  0  0  0
 31 87  1  0  0  0  0
 31 88  1  0  0  0  0
 32 33  1  0  0  0  0
 32 89  1  0  0  0  0
 32 90  1  0  0  0  0
 33 34  1  0  0  0  0
 33 91  1  0  0  0  0
 34 35  2  0  0  0  0
 34 36  1  0  0  0  0
 36 37  1  0  0  0  0
 36 92  1  0  0  0  0
 37 38  1  0  0  0  0
 37 93  1  0  0  0  0
 37 94  1  0  0  0  0
 38 39  1  0  0  0  0
 38 95  1  0  0  0  0
 38 96  1  0  0  0  0
 39 40  1  0  0  0  0
 39 41  2  0  0  0  0
 40 97  1  0  0  0  0
 42 43  2  0  0  0  0
 42 44  1  0  0  0  0
 44 45  1  0  0  0  0
 44 98  1  0  0  0  0
 45 46  1  1  0  0  0
 45 47  1  0  0  0  0
 45 51  1  0  0  0  0
 47 48  1  0  0  0  0
 47 99  1  0  0  0  0
 47100  1  0  0  0  0
 48 49  1  0  0  0  0
 48101  1  0  0  0  0
 48102  1  0  0  0  0
 49 50  1  0  0  0  0
 49103  1  0  0  0  0
 49104  1  0  0  0  0
 50105  1  0  0  0  0
 50106  1  0  0  0  0
 51 52  1  0  0  0  0
 51 53  2  0  0  0  0
 52107  1  0  0  0  0
 52108  1  0  0  0  0
M  END
$$$$
