REMARK SMILES [H]/N=C(\N)NCCCC[C@@H]1NC(=O)CCCCCCC(=O)NCCCCC[C@@H](C(N)=O)NC(=O)[C@@H](CCCCNC(=S)NCCC(=O)O)NC1=O
REMARK SMILES IDX 36 1 35 2 49 3 50 4 51 5 10 7 9 8 8 9 7 10 6 11 5 12 2 13
REMARK SMILES IDX 3 14 1 15 4 16 11 20 12 21 13 23 14 24 15 25 16 26 17 27
REMARK SMILES IDX 18 28 33 30 34 31 32 32 28 34 27 35 26 36 25 37 24 38 23 39
REMARK SMILES IDX 22 40 20 41 21 43 19 44 29 46 30 47 31 48 37 51 38 52 39 53
REMARK SMILES IDX 40 54 41 56 42 57 43 58 44 60 45 61 46 62 47 63 48 64
REMARK H PARENT 49 6 4 17 4 18 5 19 11 22 32 33 22 42 30 49 30 50 40 55 43 59
REMARK H PARENT 48 65
REMARK Flexibility Score: 80.00
ROOT
ATOM      1  C   UNL     1      10.707   2.410  -7.907  1.00  0.00     0.035 C 
ENDROOT
BRANCH   1   2
ATOM      2  C   UNL     1      11.452   2.405  -6.554  1.00  0.00     0.171 C 
BRANCH   2   3
ATOM      3  N   UNL     1      12.185   1.139  -6.204  1.00  0.00    -0.343 N 
ATOM      4  C   UNL     1      11.683  -0.110  -6.407  1.00  0.00     0.243 C 
ATOM      5  O   UNL     1      10.460  -0.236  -6.310  1.00  0.00    -0.273 OA
ATOM      6  H   UNL     1      12.514   1.232  -5.248  1.00  0.00     0.164 HD
BRANCH   4   7
ATOM      7  C   UNL     1      12.508  -1.456  -6.336  1.00  0.00     0.171 C 
BRANCH   7   8
ATOM      8  C   UNL     1      12.261  -1.946  -4.813  1.00  0.00     0.035 C 
BRANCH   8   9
ATOM      9  C   UNL     1      11.042  -1.454  -3.902  1.00  0.00     0.004 C 
BRANCH   9  10
ATOM     10  C   UNL     1      10.999  -2.148  -2.502  1.00  0.00     0.021 C 
BRANCH  10  11
ATOM     11  C   UNL     1       9.831  -1.760  -1.556  1.00  0.00     0.116 C 
BRANCH  11  12
ATOM     12  N   UNL     1       9.780  -2.644  -0.381  1.00  0.00    -0.357 N 
ATOM     13  N   UNL     1      10.912  -3.680   1.310  1.00  0.00    -0.270 NA
ATOM     14  C   UNL     1      10.523  -2.564   0.750  1.00  0.00     0.185 C 
ATOM     15  H   UNL     1      11.483  -3.430   2.143  1.00  0.00     0.191 HD
ATOM     16  N   UNL     1      10.757  -1.328   1.238  1.00  0.00    -0.370 N 
ATOM     17  H   UNL     1      11.039  -1.343   2.227  1.00  0.00     0.159 HD
ATOM     18  H   UNL     1       9.928  -0.740   1.145  1.00  0.00     0.159 HD
ATOM     19  H   UNL     1       9.694  -3.623  -0.652  1.00  0.00     0.163 HD
ENDBRANCH  11  12
ENDBRANCH  10  11
ENDBRANCH   9  10
ENDBRANCH   8   9
ENDBRANCH   7   8
BRANCH   7  20
ATOM     20  N   UNL     1      13.983  -1.840  -6.835  1.00  0.00    -0.344 N 
ATOM     21  C   UNL     1      14.486  -2.050  -8.136  1.00  0.00     0.220 C 
ATOM     22  H   UNL     1      14.265  -2.666  -6.324  1.00  0.00     0.164 HD
ATOM     23  O   UNL     1      13.733  -1.954  -9.108  1.00  0.00    -0.275 OA
BRANCH  21  24
ATOM     24  C   UNL     1      16.098  -2.309  -8.424  1.00  0.00     0.100 C 
BRANCH  24  25
ATOM     25  C   UNL     1      17.024  -3.561  -8.190  1.00  0.00     0.010 C 
BRANCH  25  26
ATOM     26  C   UNL     1      17.707  -3.638  -6.824  1.00  0.00     0.001 C 
BRANCH  26  27
ATOM     27  C   UNL     1      17.300  -4.854  -5.943  1.00  0.00     0.001 C 
BRANCH  27  28
ATOM     28  C   UNL     1      16.417  -4.220  -4.903  1.00  0.00     0.010 CG0
ATOM     29  G   UNL     1      15.905  -4.767  -3.611  1.00  0.00     0.000 G0
ENDBRANCH  27  28
ENDBRANCH  26  27
ENDBRANCH  25  26
ENDBRANCH  24  25
ENDBRANCH  21  24
ENDBRANCH   7  20
ENDBRANCH   4   7
ENDBRANCH   2   3
BRANCH   2  30
ATOM     30  C   UNL     1      12.598   3.481  -6.492  1.00  0.00     0.243 C 
ATOM     31  O   UNL     1      12.942   3.978  -5.420  1.00  0.00    -0.273 OA
ATOM     32  N   UNL     1      13.383   3.588  -7.622  1.00  0.00    -0.343 N 
ATOM     33  H   UNL     1      13.019   3.345  -8.537  1.00  0.00     0.164 HD
BRANCH  32  34
ATOM     34  C   UNL     1      14.835   3.785  -7.566  1.00  0.00     0.171 C 
BRANCH  34  35
ATOM     35  C   UNL     1      15.572   2.434  -7.353  1.00  0.00     0.035 C 
BRANCH  35  36
ATOM     36  C   UNL     1      15.347   1.885  -5.939  1.00  0.00     0.003 C 
BRANCH  36  37
ATOM     37  C   UNL     1      15.957   0.531  -5.611  1.00  0.00     0.002 C 
BRANCH  37  38
ATOM     38  C   UNL     1      15.394  -0.045  -4.274  1.00  0.00     0.021 C 
BRANCH  38  39
ATOM     39  C   UNL     1      15.766  -1.523  -4.129  1.00  0.00     0.116 C 
BRANCH  39  40
ATOM     40  N   UNL     1      15.165  -2.324  -3.050  1.00  0.00    -0.356 N 
ATOM     41  C   UNL     1      15.106  -3.685  -2.821  1.00  0.00     0.219 C 
ATOM     42  H   UNL     1      14.550  -1.841  -2.408  1.00  0.00     0.163 HD
ATOM     43  O   UNL     1      14.372  -4.060  -1.896  1.00  0.00    -0.275 OA
BRANCH  41  44
ATOM     44  C   UNL     1      15.905  -4.767  -3.611  1.00  0.00     0.100 CG0
ATOM     45  G   UNL     1      16.417  -4.220  -4.903  1.00  0.00     0.000 G0
ENDBRANCH  41  44
ENDBRANCH  39  40
ENDBRANCH  38  39
ENDBRANCH  37  38
ENDBRANCH  36  37
ENDBRANCH  35  36
ENDBRANCH  34  35
BRANCH  34  46
ATOM     46  C   UNL     1      15.283   4.421  -8.882  1.00  0.00     0.240 C 
ATOM     47  N   UNL     1      16.560   4.912  -8.914  1.00  0.00    -0.368 N 
ATOM     48  O   UNL     1      14.585   4.466  -9.899  1.00  0.00    -0.273 OA
ATOM     49  H   UNL     1      17.127   5.021  -8.092  1.00  0.00     0.159 HD
ATOM     50  H   UNL     1      16.851   5.369  -9.767  1.00  0.00     0.159 HD
ENDBRANCH  34  46
ENDBRANCH  32  34
ENDBRANCH   2  30
ENDBRANCH   1   2
BRANCH   1  51
ATOM     51  C   UNL     1       9.464   1.517  -8.088  1.00  0.00     0.004 C 
BRANCH  51  52
ATOM     52  C   UNL     1       8.291   1.749  -7.124  1.00  0.00     0.021 C 
BRANCH  52  53
ATOM     53  C   UNL     1       7.515   2.982  -7.572  1.00  0.00     0.115 C 
BRANCH  53  54
ATOM     54  N   UNL     1       6.205   3.136  -6.962  1.00  0.00    -0.363 N 
ATOM     55  H   UNL     1       6.193   3.460  -6.005  1.00  0.00     0.162 HD
BRANCH  54  56
ATOM     56  C   UNL     1       4.993   2.872  -7.566  1.00  0.00     0.166 C 
ATOM     57  S   UNL     1       4.769   1.912  -8.911  1.00  0.00    -0.041 S 
BRANCH  56  58
ATOM     58  N   UNL     1       3.992   3.610  -6.967  1.00  0.00    -0.362 N 
ATOM     59  H   UNL     1       4.292   4.204  -6.204  1.00  0.00     0.162 HD
BRANCH  58  60
ATOM     60  C   UNL     1       2.546   3.418  -7.099  1.00  0.00     0.127 C 
BRANCH  60  61
ATOM     61  C   UNL     1       1.795   4.736  -7.035  1.00  0.00     0.143 C 
BRANCH  61  62
ATOM     62  C   UNL     1       2.008   5.695  -8.183  1.00  0.00     0.305 C 
ATOM     63  O   UNL     1       1.339   6.715  -8.298  1.00  0.00    -0.252 OA
BRANCH  62  64
ATOM     64  O   UNL     1       2.995   5.407  -9.049  1.00  0.00    -0.481 OA
ATOM     65  H   UNL     1       3.522   4.605  -8.851  1.00  0.00     0.296 HD
ENDBRANCH  62  64
ENDBRANCH  61  62
ENDBRANCH  60  61
ENDBRANCH  58  60
ENDBRANCH  56  58
ENDBRANCH  54  56
ENDBRANCH  53  54
ENDBRANCH  52  53
ENDBRANCH  51  52
ENDBRANCH   1  51
TORSDOF 17
