
 OpenBabel12142409203D

157159  0  0  1  0  0  0  0  0999 V2000
    5.2972   -4.5566   -5.1499 C   0  0  0  0  0  0  0  0  0  0  0  0
    5.6246   -3.3047   -4.7830 C   0  0  0  0  0  0  0  0  0  0  0  0
    4.6901   -2.3943   -4.2754 N   0  0  0  0  0  0  0  0  0  0  0  0
    3.2222   -2.4795   -3.9997 C   0  0  2  0  0  0  0  0  0  0  0  0
    2.9622   -1.5023   -3.5702 H   0  0  0  0  0  0  0  0  0  0  0  0
    2.7644   -3.5563   -2.9948 C   0  0  0  0  0  0  0  0  0  0  0  0
    3.3651   -3.5299   -1.5841 C   0  0  0  0  0  0  0  0  0  0  0  0
    3.0781   -2.2552   -0.7851 C   0  0  0  0  0  0  0  0  0  0  0  0
    3.6958   -2.3474    0.6114 C   0  0  0  0  0  0  0  0  0  0  0  0
    3.5027   -1.1369    1.3813 N   0  0  0  0  0  0  0  0  0  0  0  0
    4.0288   -1.0183    2.6519 C   0  0  0  0  0  0  0  0  0  0  0  0
    4.6180   -1.9262    3.2257 O   0  0  0  0  0  0  0  0  0  0  0  0
    3.7748    0.3274    3.2906 C   0  0  0  0  0  0  0  0  0  0  0  0
    4.8803    0.7229    4.2677 C   0  0  3  0  0  0  0  0  0  0  0  0
    6.5741    0.8635    3.5180 S   0  0  0  0  0  0  0  0  0  0  0  0
    6.3646    2.1259    2.2750 C   0  0  0  0  0  0  0  0  0  0  0  0
    6.6546    3.4592    2.5728 C   0  0  0  0  0  0  0  0  0  0  0  0
    6.6540    4.4278    1.5655 C   0  0  0  0  0  0  0  0  0  0  0  0
    6.3839    4.0747    0.2381 C   0  0  0  0  0  0  0  0  0  0  0  0
    6.4514    5.0203   -0.7972 C   0  0  0  0  0  0  0  0  0  0  0  0
    6.2007    4.6520   -2.1152 C   0  0  0  0  0  0  0  0  0  0  0  0
    5.8569    3.3376   -2.4159 C   0  0  0  0  0  0  0  0  0  0  0  0
    5.7865    2.3826   -1.4002 C   0  0  0  0  0  0  0  0  0  0  0  0
    6.0649    2.7304   -0.0683 C   0  0  0  0  0  0  0  0  0  0  0  0
    6.0636    1.7701    0.9566 C   0  0  0  0  0  0  0  0  0  0  0  0
    4.5073    1.9967    5.0172 C   0  0  0  0  0  0  0  0  0  0  0  0
    3.3593    2.3802    5.1940 O   0  0  0  0  0  0  0  0  0  0  0  0
    5.5613    2.6541    5.5614 O   0  0  0  0  0  0  0  0  0  0  0  0
    2.3101   -2.5474   -5.2738 C   0  0  0  0  0  0  0  0  0  0  0  0
    1.0952   -2.3607   -5.1985 O   0  0  0  0  0  0  0  0  0  0  0  0
    2.9067   -2.9135   -6.4488 N   0  0  0  0  0  0  0  0  0  0  0  0
    2.3608   -2.8957   -7.8154 C   0  0  2  0  0  0  0  0  0  0  0  0
    3.1042   -3.4932   -8.3631 H   0  0  0  0  0  0  0  0  0  0  0  0
    2.3228   -1.5042   -8.4644 C   0  0  0  0  0  0  0  0  0  0  0  0
    3.6228   -0.7294   -8.3372 C   0  0  0  0  0  0  0  0  0  0  0  0
    3.5762    0.5325   -9.1584 C   0  0  0  0  0  0  0  0  0  0  0  0
    3.2647    1.6178   -8.7228 O   0  0  0  0  0  0  0  0  0  0  0  0
    3.9079    0.3599  -10.4598 O   0  0  0  0  0  0  0  0  0  0  0  0
    1.0174   -3.5844   -8.1788 C   0  0  0  0  0  0  0  0  0  0  0  0
    0.8022   -3.9727   -9.3304 O   0  0  0  0  0  0  0  0  0  0  0  0
    0.0228   -3.5702   -7.2466 N   0  0  0  0  0  0  0  0  0  0  0  0
   -1.3865   -3.8586   -7.5547 C   0  0  2  0  0  0  0  0  0  0  0  0
   -1.6030   -3.4700   -8.5581 H   0  0  0  0  0  0  0  0  0  0  0  0
   -2.3275   -3.1940   -6.5236 C   0  0  0  0  0  0  0  0  0  0  0  0
   -2.2535   -1.6788   -6.4207 C   0  0  0  0  0  0  0  0  0  0  0  0
   -2.5706   -0.8487   -7.5073 C   0  0  0  0  0  0  0  0  0  0  0  0
   -2.5745    0.5460   -7.3671 C   0  0  0  0  0  0  0  0  0  0  0  0
   -2.2633    1.1160   -6.1378 C   0  0  0  0  0  0  0  0  0  0  0  0
   -2.2753    2.4663   -5.9496 O   0  0  0  0  0  0  0  0  0  0  0  0
   -1.9382    0.3162   -5.0518 C   0  0  0  0  0  0  0  0  0  0  0  0
   -1.9358   -1.0745   -5.1918 C   0  0  0  0  0  0  0  0  0  0  0  0
   -1.6496   -5.3961   -7.6122 C   0  0  0  0  0  0  0  0  0  0  0  0
   -2.6926   -5.9137   -7.2158 O   0  0  0  0  0  0  0  0  0  0  0  0
   -0.6944   -6.1311   -8.2799 N   0  0  0  0  0  0  0  0  0  0  0  0
   -0.7970   -7.5604   -8.5043 C   0  0  0  0  0  0  0  0  0  0  0  0
    0.4999   -8.1125   -9.1209 C   0  0  0  0  0  0  0  0  0  0  0  0
    1.5377   -7.4556   -9.2110 O   0  0  0  0  0  0  0  0  0  0  0  0
    0.4195   -9.4162   -9.5648 N   0  0  0  0  0  0  0  0  0  0  0  0
    1.5657  -10.0864  -10.1952 C   0  0  1  0  0  0  0  0  0  0  0  0
    2.1601   -9.3362  -10.7319 H   0  0  0  0  0  0  0  0  0  0  0  0
    2.4322  -10.6785   -9.0641 C   0  0  0  0  0  0  0  0  0  0  0  0
    3.3842   -9.8327   -8.5663 N   0  0  0  0  0  0  0  0  0  0  0  0
    2.2544  -11.7854   -8.5643 O   0  0  0  0  0  0  0  0  0  0  0  0
    1.1082  -11.1821  -11.1846 C   0  0  0  0  0  0  0  0  0  0  0  0
    0.2065  -10.6002  -12.2795 C   0  0  0  0  0  0  0  0  0  0  0  0
    2.3074  -11.8677  -11.8546 C   0  0  0  0  0  0  0  0  0  0  0  0
    7.0937   -2.8353   -5.0746 C   0  0  3  0  0  0  0  0  0  0  0  0
    7.2029   -2.0374   -6.4097 C   0  0  0  0  0  0  0  0  0  0  0  0
    8.6504   -1.6871   -6.8098 C   0  0  0  0  0  0  0  0  0  0  0  0
    8.7546   -1.0335   -8.1854 C   0  0  0  0  0  0  0  0  0  0  0  0
    7.8730   -2.2353   -3.9766 N   0  0  0  0  0  0  0  0  0  0  0  0
    7.5349   -1.5983   -2.8110 C   0  0  0  0  0  0  0  0  0  0  0  0
    6.3746   -1.4853   -2.3994 O   0  0  0  0  0  0  0  0  0  0  0  0
    8.7398   -1.0439   -1.9680 C   0  0  1  0  0  0  0  0  0  0  0  0
    8.2875   -0.4200   -1.1827 H   0  0  0  0  0  0  0  0  0  0  0  0
    9.4076   -2.1269   -1.2314 N   0  0  0  0  0  0  0  0  0  0  0  0
   10.2176   -3.0738   -1.8042 C   0  0  0  0  0  0  0  0  0  0  0  0
   10.3948   -3.1276   -3.0294 O   0  0  0  0  0  0  0  0  0  0  0  0
   10.9524   -4.0043   -0.8354 C   0  0  0  0  0  0  0  0  0  0  0  0
   10.0115   -4.6608    0.0914 N   0  0  0  0  0  0  0  0  0  0  0  0
   10.7367   -5.6085    0.9415 C   0  0  0  0  0  0  0  0  0  0  0  0
    9.7203   -0.1252   -2.7622 C   0  0  0  0  0  0  0  0  0  0  0  0
    8.9860    1.0583   -3.4073 C   0  0  0  0  0  0  0  0  0  0  0  0
   10.8489    0.4491   -1.8877 C   0  0  0  0  0  0  0  0  0  0  0  0
    4.2973   -4.9545   -5.0376 H   0  0  0  0  0  0  0  0  0  0  0  0
    6.0186   -5.2239   -5.6090 H   0  0  0  0  0  0  0  0  0  0  0  0
    5.1541   -1.8470   -3.5283 H   0  0  0  0  0  0  0  0  0  0  0  0
    2.9215   -4.5572   -3.4111 H   0  0  0  0  0  0  0  0  0  0  0  0
    1.6732   -3.4774   -2.8778 H   0  0  0  0  0  0  0  0  0  0  0  0
    4.4439   -3.7085   -1.6380 H   0  0  0  0  0  0  0  0  0  0  0  0
    2.9379   -4.3765   -1.0296 H   0  0  0  0  0  0  0  0  0  0  0  0
    1.9950   -2.1018   -0.6953 H   0  0  0  0  0  0  0  0  0  0  0  0
    3.4825   -1.3802   -1.3046 H   0  0  0  0  0  0  0  0  0  0  0  0
    4.7752   -2.5267    0.5415 H   0  0  0  0  0  0  0  0  0  0  0  0
    3.2583   -3.1780    1.1772 H   0  0  0  0  0  0  0  0  0  0  0  0
    2.9805   -0.3685    0.9790 H   0  0  0  0  0  0  0  0  0  0  0  0
    2.8251    0.2259    3.8335 H   0  0  0  0  0  0  0  0  0  0  0  0
    3.6152    1.1012    2.5329 H   0  0  0  0  0  0  0  0  0  0  0  0
    4.9729   -0.0522    5.0387 H   0  0  0  0  0  0  0  0  0  0  0  0
    6.9187    3.7700    3.5793 H   0  0  0  0  0  0  0  0  0  0  0  0
    6.8957    5.4561    1.8250 H   0  0  0  0  0  0  0  0  0  0  0  0
    6.7180    6.0572   -0.5798 H   0  0  0  0  0  0  0  0  0  0  0  0
    6.2759    5.3900   -2.9108 H   0  0  0  0  0  0  0  0  0  0  0  0
    5.6526    3.0498   -3.4448 H   0  0  0  0  0  0  0  0  0  0  0  0
    5.5241    1.3580   -1.6584 H   0  0  0  0  0  0  0  0  0  0  0  0
    5.8677    0.7270    0.7091 H   0  0  0  0  0  0  0  0  0  0  0  0
    6.4073    2.2247    5.3106 H   0  0  0  0  0  0  0  0  0  0  0  0
    3.9176   -2.8443   -6.3835 H   0  0  0  0  0  0  0  0  0  0  0  0
    1.4906   -0.9124   -8.0605 H   0  0  0  0  0  0  0  0  0  0  0  0
    2.0994   -1.6311   -9.5324 H   0  0  0  0  0  0  0  0  0  0  0  0
    4.4914   -1.3277   -8.6358 H   0  0  0  0  0  0  0  0  0  0  0  0
    3.7936   -0.4349   -7.2928 H   0  0  0  0  0  0  0  0  0  0  0  0
    3.3907   -0.3498  -10.8764 H   0  0  0  0  0  0  0  0  0  0  0  0
    0.2215   -3.1208   -6.3531 H   0  0  0  0  0  0  0  0  0  0  0  0
   -2.1203   -3.6275   -5.5361 H   0  0  0  0  0  0  0  0  0  0  0  0
   -3.3716   -3.4506   -6.7453 H   0  0  0  0  0  0  0  0  0  0  0  0
   -2.8380   -1.2791   -8.4693 H   0  0  0  0  0  0  0  0  0  0  0  0
   -2.8363    1.1658   -8.2193 H   0  0  0  0  0  0  0  0  0  0  0  0
   -2.5114    2.8970   -6.7869 H   0  0  0  0  0  0  0  0  0  0  0  0
   -1.6969    0.7706   -4.0957 H   0  0  0  0  0  0  0  0  0  0  0  0
   -1.6857   -1.6838   -4.3256 H   0  0  0  0  0  0  0  0  0  0  0  0
    0.0166   -5.6248   -8.8082 H   0  0  0  0  0  0  0  0  0  0  0  0
   -1.6363   -7.7412   -9.1837 H   0  0  0  0  0  0  0  0  0  0  0  0
   -0.9892   -8.0582   -7.5486 H   0  0  0  0  0  0  0  0  0  0  0  0
   -0.3400  -10.0005   -9.2336 H   0  0  0  0  0  0  0  0  0  0  0  0
    3.2889   -8.8301   -8.7184 H   0  0  0  0  0  0  0  0  0  0  0  0
    3.8940  -10.1429   -7.7508 H   0  0  0  0  0  0  0  0  0  0  0  0
    0.5354  -11.9473  -10.6443 H   0  0  0  0  0  0  0  0  0  0  0  0
    0.7322   -9.8297  -12.8541 H   0  0  0  0  0  0  0  0  0  0  0  0
   -0.6990  -10.1525  -11.8586 H   0  0  0  0  0  0  0  0  0  0  0  0
   -0.1092  -11.3837  -12.9768 H   0  0  0  0  0  0  0  0  0  0  0  0
    2.8983  -11.1511  -12.4357 H   0  0  0  0  0  0  0  0  0  0  0  0
    1.9696  -12.6561  -12.5361 H   0  0  0  0  0  0  0  0  0  0  0  0
    2.9717  -12.3364  -11.1224 H   0  0  0  0  0  0  0  0  0  0  0  0
    7.6686   -3.7546   -5.2575 H   0  0  0  0  0  0  0  0  0  0  0  0
    6.6106   -1.1168   -6.3580 H   0  0  0  0  0  0  0  0  0  0  0  0
    6.7682   -2.6474   -7.2151 H   0  0  0  0  0  0  0  0  0  0  0  0
    9.2704   -2.5916   -6.8101 H   0  0  0  0  0  0  0  0  0  0  0  0
    9.0797   -0.9986   -6.0744 H   0  0  0  0  0  0  0  0  0  0  0  0
    8.4860   -1.7345   -8.9826 H   0  0  0  0  0  0  0  0  0  0  0  0
    9.7849   -0.7057   -8.3691 H   0  0  0  0  0  0  0  0  0  0  0  0
    8.1068   -0.1551   -8.2637 H   0  0  0  0  0  0  0  0  0  0  0  0
    8.8761   -2.3990   -4.0634 H   0  0  0  0  0  0  0  0  0  0  0  0
    9.1697   -2.2816   -0.2519 H   0  0  0  0  0  0  0  0  0  0  0  0
   11.6849   -3.4082   -0.2799 H   0  0  0  0  0  0  0  0  0  0  0  0
   11.4890   -4.7553   -1.4301 H   0  0  0  0  0  0  0  0  0  0  0  0
    9.3305   -5.1889   -0.4591 H   0  0  0  0  0  0  0  0  0  0  0  0
   11.4322   -5.0894    1.6095 H   0  0  0  0  0  0  0  0  0  0  0  0
   11.2966   -6.3405    0.3479 H   0  0  0  0  0  0  0  0  0  0  0  0
   10.0304   -6.1642    1.5671 H   0  0  0  0  0  0  0  0  0  0  0  0
   10.1951   -0.6945   -3.5700 H   0  0  0  0  0  0  0  0  0  0  0  0
    8.6261    1.7585   -2.6474 H   0  0  0  0  0  0  0  0  0  0  0  0
    8.1316    0.7332   -4.0071 H   0  0  0  0  0  0  0  0  0  0  0  0
    9.6610    1.6100   -4.0720 H   0  0  0  0  0  0  0  0  0  0  0  0
   10.4568    1.1266   -1.1221 H   0  0  0  0  0  0  0  0  0  0  0  0
   11.5516    1.0240   -2.5050 H   0  0  0  0  0  0  0  0  0  0  0  0
   11.4254   -0.3346   -1.3879 H   0  0  0  0  0  0  0  0  0  0  0  0
  1  2  2  0  0  0  0
  1 85  1  0  0  0  0
  1 86  1  0  0  0  0
  2  3  1  0  0  0  0
  2 67  1  0  0  0  0
  3 87  1  0  0  0  0
  4  6  1  0  0  0  0
  4 29  1  0  0  0  0
  4  5  1  1  0  0  0
  4  3  1  0  0  0  0
  6  7  1  0  0  0  0
  6 88  1  0  0  0  0
  6 89  1  0  0  0  0
  7  8  1  0  0  0  0
  7 90  1  0  0  0  0
  7 91  1  0  0  0  0
  8  9  1  0  0  0  0
  8 92  1  0  0  0  0
  8 93  1  0  0  0  0
  9 10  1  0  0  0  0
  9 94  1  0  0  0  0
  9 95  1  0  0  0  0
 10 11  1  0  0  0  0
 10 96  1  0  0  0  0
 11 12  2  0  0  0  0
 11 13  1  0  0  0  0
 13 14  1  0  0  0  0
 13 97  1  0  0  0  0
 13 98  1  0  0  0  0
 14 15  1  0  0  0  0
 14 26  1  0  0  0  0
 14 99  1  0  0  0  0
 15 16  1  0  0  0  0
 16 17  2  0  0  0  0
 16 25  1  0  0  0  0
 17 18  1  0  0  0  0
 17100  1  0  0  0  0
 18 19  2  0  0  0  0
 18101  1  0  0  0  0
 19 20  1  0  0  0  0
 19 24  1  0  0  0  0
 20 21  2  0  0  0  0
 20102  1  0  0  0  0
 21 22  1  0  0  0  0
 21103  1  0  0  0  0
 22 23  2  0  0  0  0
 22104  1  0  0  0  0
 23 24  1  0  0  0  0
 23105  1  0  0  0  0
 24 25  2  0  0  0  0
 25106  1  0  0  0  0
 26 27  2  0  0  0  0
 26 28  1  0  0  0  0
 28107  1  0  0  0  0
 29 30  2  0  0  0  0
 29 31  1  0  0  0  0
 31108  1  0  0  0  0
 32 34  1  0  0  0  0
 32 39  1  0  0  0  0
 32 33  1  6  0  0  0
 32 31  1  0  0  0  0
 34 35  1  0  0  0  0
 34109  1  0  0  0  0
 34110  1  0  0  0  0
 35 36  1  0  0  0  0
 35111  1  0  0  0  0
 35112  1  0  0  0  0
 36 37  2  0  0  0  0
 36 38  1  0  0  0  0
 38113  1  0  0  0  0
 39 40  2  0  0  0  0
 39 41  1  0  0  0  0
 41114  1  0  0  0  0
 42 44  1  0  0  0  0
 42 52  1  0  0  0  0
 42 43  1  6  0  0  0
 42 41  1  0  0  0  0
 44 45  1  0  0  0  0
 44115  1  0  0  0  0
 44116  1  0  0  0  0
 45 46  2  0  0  0  0
 45 51  1  0  0  0  0
 46 47  1  0  0  0  0
 46117  1  0  0  0  0
 47 48  2  0  0  0  0
 47118  1  0  0  0  0
 48 49  1  0  0  0  0
 48 50  1  0  0  0  0
 49119  1  0  0  0  0
 50 51  2  0  0  0  0
 50120  1  0  0  0  0
 51121  1  0  0  0  0
 52 53  2  0  0  0  0
 52 54  1  0  0  0  0
 54 55  1  0  0  0  0
 54122  1  0  0  0  0
 55 56  1  0  0  0  0
 55123  1  0  0  0  0
 55124  1  0  0  0  0
 56 57  2  0  0  0  0
 56 58  1  0  0  0  0
 58 59  1  0  0  0  0
 58125  1  0  0  0  0
 59 60  1  6  0  0  0
 59 61  1  0  0  0  0
 59 64  1  0  0  0  0
 61 62  1  0  0  0  0
 61 63  2  0  0  0  0
 62126  1  0  0  0  0
 62127  1  0  0  0  0
 64 65  1  0  0  0  0
 64 66  1  0  0  0  0
 64128  1  0  0  0  0
 65129  1  0  0  0  0
 65130  1  0  0  0  0
 65131  1  0  0  0  0
 66132  1  0  0  0  0
 66133  1  0  0  0  0
 66134  1  0  0  0  0
 67 68  1  0  0  0  0
 67 71  1  0  0  0  0
 67135  1  0  0  0  0
 68 69  1  0  0  0  0
 68136  1  0  0  0  0
 68137  1  0  0  0  0
 69 70  1  0  0  0  0
 69138  1  0  0  0  0
 69139  1  0  0  0  0
 70140  1  0  0  0  0
 70141  1  0  0  0  0
 70142  1  0  0  0  0
 71 72  1  0  0  0  0
 71143  1  0  0  0  0
 72 73  2  0  0  0  0
 72 74  1  0  0  0  0
 74 75  1  1  0  0  0
 74 76  1  0  0  0  0
 74 82  1  0  0  0  0
 76 77  1  0  0  0  0
 76144  1  0  0  0  0
 77 78  2  0  0  0  0
 77 79  1  0  0  0  0
 79 80  1  0  0  0  0
 79145  1  0  0  0  0
 79146  1  0  0  0  0
 80 81  1  0  0  0  0
 80147  1  0  0  0  0
 81148  1  0  0  0  0
 81149  1  0  0  0  0
 81150  1  0  0  0  0
 82 83  1  0  0  0  0
 82 84  1  0  0  0  0
 82151  1  0  0  0  0
 83152  1  0  0  0  0
 83153  1  0  0  0  0
 83154  1  0  0  0  0
 84155  1  0  0  0  0
 84156  1  0  0  0  0
 84157  1  0  0  0  0
M  END
$$$$
