/Users/moss/Documents/molecule_14.pdb
 OpenBabel12142411133D

 42 45  0  0  0  0  0  0  0  0999 V2000
    1.1372    0.3014    0.3087 S   0  0  0  0  0  0  0  0  0  0  0  0
    9.5051    0.1201   -1.4545 O   0  0  0  0  0  0  0  0  0  0  0  0
    5.3420   -2.0708   -0.5457 O   0  0  0  0  0  0  0  0  0  0  0  0
    3.5675    1.2192    0.7660 N   0  0  0  0  0  0  0  0  0  0  0  0
    3.4559   -0.9002   -0.1403 N   0  0  0  0  0  0  0  0  0  0  0  0
    7.0470    0.2100   -0.3222 C   0  0  0  0  0  0  0  0  0  0  0  0
    8.1686   -0.4711    0.4467 C   0  0  0  0  0  0  0  0  0  0  0  0
    5.6114    0.2109    0.1261 C   0  0  0  0  0  0  0  0  0  0  0  0
    8.1007   -1.0621    1.7477 C   0  0  0  0  0  0  0  0  0  0  0  0
    4.9365    1.2546    0.6533 C   0  0  0  0  0  0  0  0  0  0  0  0
    9.2098   -1.8336    2.1986 C   0  0  0  0  0  0  0  0  0  0  0  0
    9.3955   -0.5377   -0.2527 C   0  0  0  0  0  0  0  0  0  0  0  0
    4.8177   -1.0149   -0.2076 C   0  0  0  0  0  0  0  0  0  0  0  0
    5.5242    2.5272    1.1127 C   0  0  0  0  0  0  0  0  0  0  0  0
    7.0228   -0.9418    2.6599 C   0  0  0  0  0  0  0  0  0  0  0  0
   10.3793   -1.9219    1.4261 C   0  0  0  0  0  0  0  0  0  0  0  0
   10.4859   -1.2570    0.2194 C   0  0  0  0  0  0  0  0  0  0  0  0
    9.1593   -2.5092    3.4283 C   0  0  0  0  0  0  0  0  0  0  0  0
    2.7947    0.1986    0.3122 C   0  0  0  0  0  0  0  0  0  0  0  0
    7.0073   -1.5790    3.9020 C   0  0  0  0  0  0  0  0  0  0  0  0
    8.0613   -2.3891    4.2763 C   0  0  0  0  0  0  0  0  0  0  0  0
    5.5257    3.6377    0.2622 C   0  0  0  0  0  0  0  0  0  0  0  0
    5.8639    2.7005    2.4639 C   0  0  0  0  0  0  0  0  0  0  0  0
    5.8013    4.9100    0.7687 C   0  0  0  0  0  0  0  0  0  0  0  0
    6.1491    3.9727    2.9657 C   0  0  0  0  0  0  0  0  0  0  0  0
    6.0937    5.0793    2.1219 C   0  0  0  0  0  0  0  0  0  0  0  0
    7.0247   -0.2710   -1.3129 H   0  0  0  0  0  0  0  0  0  0  0  0
    7.3540    1.2440   -0.5226 H   0  0  0  0  0  0  0  0  0  0  0  0
    6.1692   -0.3205    2.4409 H   0  0  0  0  0  0  0  0  0  0  0  0
   11.2251   -2.5042    1.7819 H   0  0  0  0  0  0  0  0  0  0  0  0
   11.4134   -1.3183   -0.3434 H   0  0  0  0  0  0  0  0  0  0  0  0
    3.0871    2.0469    1.1070 H   0  0  0  0  0  0  0  0  0  0  0  0
    9.9843   -3.1464    3.7416 H   0  0  0  0  0  0  0  0  0  0  0  0
    2.9202   -1.7088   -0.4189 H   0  0  0  0  0  0  0  0  0  0  0  0
    6.1602   -1.4356    4.5722 H   0  0  0  0  0  0  0  0  0  0  0  0
    8.0397   -2.9163    5.2254 H   0  0  0  0  0  0  0  0  0  0  0  0
    5.2591    3.5263   -0.7860 H   0  0  0  0  0  0  0  0  0  0  0  0
    5.8565    1.8619    3.1549 H   0  0  0  0  0  0  0  0  0  0  0  0
   10.4362    0.1207   -1.7279 H   0  0  0  0  0  0  0  0  0  0  0  0
    5.7541    5.7753    0.1126 H   0  0  0  0  0  0  0  0  0  0  0  0
    6.3773    4.1032    4.0208 H   0  0  0  0  0  0  0  0  0  0  0  0
    6.2650    6.0760    2.5215 H   0  0  0  0  0  0  0  0  0  0  0  0
  1 19  2  0  0  0  0
  2 12  1  0  0  0  0
  4 19  1  0  0  0  0
  4 10  1  0  0  0  0
  5 34  1  0  0  0  0
  5 13  1  0  0  0  0
  6 27  1  0  0  0  0
  6 28  1  0  0  0  0
  7  9  1  0  0  0  0
  7  6  1  0  0  0  0
  8 13  1  0  0  0  0
  8  6  1  0  0  0  0
  9 15  2  0  0  0  0
 10  8  2  0  0  0  0
 11 18  2  0  0  0  0
 11  9  1  0  0  0  0
 12  7  2  0  0  0  0
 13  3  2  0  0  0  0
 14 10  1  0  0  0  0
 14 23  2  0  0  0  0
 15 20  1  0  0  0  0
 15 29  1  0  0  0  0
 16 11  1  0  0  0  0
 17 16  2  0  0  0  0
 17 12  1  0  0  0  0
 18 21  1  0  0  0  0
 19  5  1  0  0  0  0
 20 35  1  0  0  0  0
 21 36  1  0  0  0  0
 21 20  2  0  0  0  0
 22 14  1  0  0  0  0
 23 38  1  0  0  0  0
 24 22  2  0  0  0  0
 24 26  1  0  0  0  0
 25 23  1  0  0  0  0
 25 41  1  0  0  0  0
 26 25  2  0  0  0  0
 30 16  1  0  0  0  0
 31 17  1  0  0  0  0
 32  4  1  0  0  0  0
 33 18  1  0  0  0  0
 37 22  1  0  0  0  0
 39  2  1  0  0  0  0
 40 24  1  0  0  0  0
 42 26  1  0  0  0  0
M  END
>  <MODEL>
       1

$$$$
/Users/moss/Documents/molecule_14.pdb
 OpenBabel12142411133D

108105  0  0  1  0  0  0  0  0999 V2000
    7.4058   -2.9139   -6.2064 C   0  0  0  0  0  0  0  0  0  0  0  0
    7.6615   -1.7393   -6.8388 C   0  0  0  0  0  0  0  0  0  0  0  0
    8.5009   -0.7280   -6.4019 N   0  0  0  0  0  0  0  0  0  0  0  0
    8.1668    0.4884   -6.6495 C   0  0  0  0  0  0  0  0  0  0  0  0
    9.0896    1.4834   -6.5750 N   0  0  0  0  0  0  0  0  0  0  0  0
    6.9880    1.0548   -7.0325 N   0  0  0  0  0  0  0  0  0  0  0  0
    7.6934   -3.3692   -4.7847 C   0  0  0  0  0  0  0  0  0  0  0  0
    0.4150    0.9044    1.4546 C   0  0  0  0  0  0  0  0  0  0  0  0
    1.7923    0.7861    1.4031 N   0  0  0  0  0  0  0  0  0  0  0  0
   -0.4409    1.2962    2.4038 C   0  0  0  0  0  0  0  0  0  0  0  0
    2.8241    1.3151    2.1693 C   0  0  0  0  0  0  0  0  0  0  0  0
   -1.8843    1.2064    2.0135 C   0  0  0  0  0  0  0  0  0  0  0  0
    2.7616    2.7884    2.9450 S   0  0  0  0  0  0  0  0  0  0  0  0
    3.9171    0.4459    2.1817 N   0  0  0  0  0  0  0  0  0  0  0  0
   -2.3161    0.4864    1.1298 O   0  0  0  0  0  0  0  0  0  0  0  0
   -2.6699    2.0404    2.7265 O   0  0  0  0  0  0  0  0  0  0  0  0
    5.0545    0.4383    3.1090 C   0  0  0  0  0  0  0  0  0  0  0  0
    4.8651   -0.4501    4.3387 C   0  0  0  0  0  0  0  0  0  0  0  0
   -0.0496   -1.6146   -1.1603 C   0  0  0  0  0  0  0  0  0  0  0  0
   -0.7318   -2.9145   -0.7530 C   0  0  0  0  0  0  0  0  0  0  0  0
    0.1172   -3.6910    0.2672 C   0  0  2  0  0  0  0  0  0  0  0  0
    1.3617   -4.1786   -0.3648 N   0  0  0  0  0  0  0  0  0  0  0  0
    0.3857   -3.0049    1.0750 H   0  0  0  0  0  0  0  0  0  0  0  0
   -0.5886   -4.8692    0.9509 C   0  0  0  0  0  0  0  0  0  0  0  0
    9.6228   -5.1546   -4.3145 C   0  0  1  0  0  0  0  0  0  0  0  0
    0.2193   -5.4520    1.8939 O   0  0  0  0  0  0  0  0  0  0  0  0
   -1.7537   -5.3138    0.5929 N   0  0  0  0  0  0  0  0  0  0  0  0
    8.7326   -5.0905   -3.0749 C   0  0  1  0  0  0  0  0  0  0  0  0
    9.9719   -6.4718   -4.7883 O   0  0  0  0  0  0  0  0  0  0  0  0
   -2.1341   -6.4544    1.2512 C   0  0  0  0  0  0  0  0  0  0  0  0
    8.1683   -4.8016   -4.4744 C   0  0  1  0  0  0  0  0  0  0  0  0
    8.6464   -6.3188   -2.2520 N   0  0  0  0  0  0  0  0  0  0  0  0
    9.5026   -6.3256   -1.6990 H   0  0  0  0  0  0  0  0  0  0  0  0
    2.0463   -1.8418    3.0133 C   0  0  0  0  0  0  0  0  0  0  0  0
   -2.9438   -7.0175    0.7976 H   0  0  0  0  0  0  0  0  0  0  0  0
   -1.5595   -6.8755    2.3870 C   0  0  0  0  0  0  0  0  0  0  0  0
    7.6564   -6.5273   -1.2915 C   0  0  0  0  0  0  0  0  0  0  0  0
   -0.4694    2.4932   -1.2505 C   0  0  0  0  0  0  0  0  0  0  0  0
   -0.5833   -6.0743    2.9583 O   0  0  0  0  0  0  0  0  0  0  0  0
   -1.9334   -7.9839    3.1073 N   0  0  0  0  0  0  0  0  0  0  0  0
    6.4592   -7.3452   -1.7600 C   0  0  0  0  0  0  0  0  0  0  0  0
    7.8791   -6.2628   -0.1107 O   0  0  0  0  0  0  0  0  0  0  0  0
   -0.2765    3.6574   -0.2932 C   0  0  0  0  0  0  0  0  0  0  0  0
    5.2813   -7.3697   -0.7717 C   0  0  0  0  0  0  0  0  0  0  0  0
    0.9054    4.5096   -0.7090 C   0  0  0  0  0  0  0  0  0  0  0  0
    4.0614   -8.0118   -1.3981 C   0  0  0  0  0  0  0  0  0  0  0  0
    2.9312   -7.3427   -1.6828 C   0  0  0  0  0  0  0  0  0  0  0  0
    0.6923   -6.0451   -6.2137 C   0  0  0  0  0  0  0  0  0  0  0  0
    1.7422   -7.9133   -2.4149 C   0  0  0  0  0  0  0  0  0  0  0  0
    1.5081   -7.0395   -6.1206 N   0  0  0  0  0  0  0  0  0  0  0  0
    1.5415   -7.1734   -3.7105 C   0  0  0  0  0  0  0  0  0  0  0  0
    1.5778   -7.7155   -4.9366 C   0  0  0  0  0  0  0  0  0  0  0  0
    1.8088   -9.0562   -5.0815 O   0  0  0  0  0  0  0  0  0  0  0  0
    6.7994   -3.6184   -6.7742 H   0  0  0  0  0  0  0  0  0  0  0  0
    7.2628   -1.6188   -7.8363 H   0  0  0  0  0  0  0  0  0  0  0  0
    8.3237   -2.6370   -4.2721 H   0  0  0  0  0  0  0  0  0  0  0  0
   -0.0330    0.5789    0.5270 H   0  0  0  0  0  0  0  0  0  0  0  0
   -0.1739    1.6147    3.3928 H   0  0  0  0  0  0  0  0  0  0  0  0
    5.2789    1.4564    3.4286 H   0  0  0  0  0  0  0  0  0  0  0  0
    5.9120    0.0585    2.5436 H   0  0  0  0  0  0  0  0  0  0  0  0
    3.8990   -0.2964    4.8287 H   0  0  0  0  0  0  0  0  0  0  0  0
    5.6508   -0.2432    5.0749 H   0  0  0  0  0  0  0  0  0  0  0  0
   -0.7155   -0.9651   -1.7348 H   0  0  0  0  0  0  0  0  0  0  0  0
    0.8629   -1.7663   -1.7434 H   0  0  0  0  0  0  0  0  0  0  0  0
   -1.7059   -2.6676   -0.3123 H   0  0  0  0  0  0  0  0  0  0  0  0
   -0.9298   -3.5128   -1.6497 H   0  0  0  0  0  0  0  0  0  0  0  0
   -1.3166    1.8723   -0.9448 H   0  0  0  0  0  0  0  0  0  0  0  0
    0.4261    1.8628   -1.2972 H   0  0  0  0  0  0  0  0  0  0  0  0
    6.1362   -6.9718   -2.7367 H   0  0  0  0  0  0  0  0  0  0  0  0
   -0.0990    3.3158    0.7274 H   0  0  0  0  0  0  0  0  0  0  0  0
   -1.1933    4.2545   -0.2555 H   0  0  0  0  0  0  0  0  0  0  0  0
    5.5437   -7.9407    0.1300 H   0  0  0  0  0  0  0  0  0  0  0  0
    5.0494   -6.3537   -0.4301 H   0  0  0  0  0  0  0  0  0  0  0  0
    0.9347    5.4269   -0.1139 H   0  0  0  0  0  0  0  0  0  0  0  0
    1.8436    3.9700   -0.5521 H   0  0  0  0  0  0  0  0  0  0  0  0
    4.1371   -9.0668   -1.6577 H   0  0  0  0  0  0  0  0  0  0  0  0
    2.8664   -6.2958   -1.4036 H   0  0  0  0  0  0  0  0  0  0  0  0
    0.6347   -5.4893   -7.1638 H   0  0  0  0  0  0  0  0  0  0  0  0
    1.8607   -8.9909   -2.5749 H   0  0  0  0  0  0  0  0  0  0  0  0
    1.3951   -6.1038   -3.6081 H   0  0  0  0  0  0  0  0  0  0  0  0
    8.9769    2.1579   -7.3247 H   0  0  0  0  0  0  0  0  0  0  0  0
   10.0188    1.0787   -6.6089 H   0  0  0  0  0  0  0  0  0  0  0  0
    2.8447   -2.3785    3.5225 H   0  0  0  0  0  0  0  0  0  0  0  0
   -1.5592   -7.9596    4.0540 H   0  0  0  0  0  0  0  0  0  0  0  0
    6.1846    0.4480   -6.8695 H   0  0  0  0  0  0  0  0  0  0  0  0
    6.8434    1.9513   -6.5978 H   0  0  0  0  0  0  0  0  0  0  0  0
   10.7088   -6.8567   -4.2830 H   0  0  0  0  0  0  0  0  0  0  0  0
    1.9111   -9.1357   -6.0471 H   0  0  0  0  0  0  0  0  0  0  0  0
    6.7096   -3.3271   -4.3007 H   0  0  0  0  0  0  0  0  0  0  0  0
    2.1182    0.2507    0.6102 H   0  0  0  0  0  0  0  0  0  0  0  0
    3.8797   -0.3535    1.5651 H   0  0  0  0  0  0  0  0  0  0  0  0
   -2.2057    2.6264    3.3491 H   0  0  0  0  0  0  0  0  0  0  0  0
    4.9506   -1.5130    4.0822 H   0  0  0  0  0  0  0  0  0  0  0  0
    0.2495   -1.0997   -0.2563 H   0  0  0  0  0  0  0  0  0  0  0  0
    1.7690   -3.4517   -0.9464 H   0  0  0  0  0  0  0  0  0  0  0  0
    1.1145   -4.9395   -0.9972 H   0  0  0  0  0  0  0  0  0  0  0  0
   10.3672   -4.3754   -4.4372 H   0  0  0  0  0  0  0  0  0  0  0  0
    8.9385   -4.2284   -2.4384 H   0  0  0  0  0  0  0  0  0  0  0  0
    7.5449   -5.5575   -4.9400 H   0  0  0  0  0  0  0  0  0  0  0  0
    2.3061   -1.7495    1.9558 H   0  0  0  0  0  0  0  0  0  0  0  0
    1.9286   -0.8597    3.4748 H   0  0  0  0  0  0  0  0  0  0  0  0
    1.1031   -2.3737    3.1054 H   0  0  0  0  0  0  0  0  0  0  0  0
   -0.6779    2.8558   -2.2651 H   0  0  0  0  0  0  0  0  0  0  0  0
   -2.9355   -8.1438    3.0933 H   0  0  0  0  0  0  0  0  0  0  0  0
    6.8127   -8.3774   -1.8942 H   0  0  0  0  0  0  0  0  0  0  0  0
    0.8318    4.7798   -1.7656 H   0  0  0  0  0  0  0  0  0  0  0  0
    0.0292   -5.6922   -5.4053 H   0  0  0  0  0  0  0  0  0  0  0  0
    0.8452   -7.7872   -1.7964 H   0  0  0  0  0  0  0  0  0  0  0  0
  1 54  1  0  0  0  0
  1  2  2  0  0  0  0
  1  7  1  0  0  0  0
  2  3  1  0  0  0  0
  3  4  2  0  0  0  0
  5  4  1  0  0  0  0
  6  4  1  0  0  0  0
  6 85  1  0  0  0  0
  7 89  1  0  0  0  0
  9  8  1  0  0  0  0
  9 90  1  0  0  0  0
 10  8  2  0  0  0  0
 10 12  1  0  0  0  0
 11  9  1  0  0  0  0
 13 11  2  0  0  0  0
 14 17  1  0  0  0  0
 14 11  1  0  0  0  0
 14 91  1  0  0  0  0
 15 12  2  0  0  0  0
 16 12  1  0  0  0  0
 16 92  1  0  0  0  0
 17 18  1  0  0  0  0
 17 60  1  0  0  0  0
 18 61  1  0  0  0  0
 18 93  1  0  0  0  0
 19 20  1  0  0  0  0
 19 64  1  0  0  0  0
 19 94  1  0  0  0  0
 20 21  1  0  0  0  0
 20 65  1  0  0  0  0
 21 22  1  0  0  0  0
 21 23  1  1  0  0  0
 21 24  1  0  0  0  0
 22 95  1  0  0  0  0
 22 96  1  0  0  0  0
 24 26  1  0  0  0  0
 24 27  2  0  0  0  0
 25 28  1  1  0  0  0
 25 29  1  0  0  0  0
 25 97  1  0  0  0  0
 26 39  1  0  0  0  0
 27 30  1  0  0  0  0
 28 31  1  6  0  0  0
 28 32  1  0  0  0  0
 28 98  1  0  0  0  0
 30 35  1  0  0  0  0
 30 36  2  0  0  0  0
 31 25  1  6  0  0  0
 31  7  1  0  0  0  0
 31 99  1  0  0  0  0
 32 33  1  0  0  0  0
 32 37  1  0  0  0  0
 34 83  1  0  0  0  0
 34100  1  0  0  0  0
 34101  1  0  0  0  0
 34102  1  0  0  0  0
 36 39  1  0  0  0  0
 36 40  1  0  0  0  0
 37 41  1  0  0  0  0
 37 42  2  0  0  0  0
 38 43  1  0  0  0  0
 38 68  1  0  0  0  0
 38103  1  0  0  0  0
 40 84  1  0  0  0  0
 40104  1  0  0  0  0
 41 44  1  0  0  0  0
 41 69  1  0  0  0  0
 41105  1  0  0  0  0
 43 45  1  0  0  0  0
 43 71  1  0  0  0  0
 44 46  1  0  0  0  0
 44 72  1  0  0  0  0
 45 75  1  0  0  0  0
 45106  1  0  0  0  0
 46 47  2  0  0  0  0
 46 76  1  0  0  0  0
 47 49  1  0  0  0  0
 47 77  1  0  0  0  0
 48 50  2  0  0  0  0
 48107  1  0  0  0  0
 49 51  1  0  0  0  0
 49 79  1  0  0  0  0
 49108  1  0  0  0  0
 50 52  1  0  0  0  0
 51 52  2  0  0  0  0
 51 80  1  0  0  0  0
 52 53  1  0  0  0  0
 53 88  1  0  0  0  0
 55  2  1  0  0  0  0
 56  7  1  0  0  0  0
 57  8  1  0  0  0  0
 58 10  1  0  0  0  0
 59 17  1  0  0  0  0
 62 18  1  0  0  0  0
 63 19  1  0  0  0  0
 66 20  1  0  0  0  0
 67 38  1  0  0  0  0
 70 43  1  0  0  0  0
 73 44  1  0  0  0  0
 74 45  1  0  0  0  0
 78 48  1  0  0  0  0
 81  5  1  0  0  0  0
 82  5  1  0  0  0  0
 86  6  1  0  0  0  0
 87 29  1  0  0  0  0
M  END
>  <ONECT>
   1   19

>  <MODEL>
       2

$$$$
