
 OpenBabel12132422563D

 59 60  0  0  1  0  0  0  0  0999 V2000
    8.8369   -0.1774    3.3587 O   0  0  0  0  0  0  0  0  0  0  0  0
    9.4596   -0.6835    2.4379 C   0  0  0  0  0  0  0  0  0  0  0  0
    9.3511   -2.0018    2.1421 O   0  0  0  0  0  0  0  0  0  0  0  0
   10.3145    0.0295    1.4340 C   0  0  0  0  0  0  0  0  0  0  0  0
   10.7828    1.4215    1.7870 C   0  0  0  0  0  0  0  0  0  0  0  0
   11.5973    1.8018    3.1970 S   0  0  0  0  0  0  0  0  0  0  0  0
   10.6686    2.3952    0.8299 N   0  0  0  0  0  0  0  0  0  0  0  0
   10.5882    2.1243   -0.5831 C   0  0  0  0  0  0  0  0  0  0  0  0
    9.2014    2.2532   -1.1897 C   0  0  0  0  0  0  0  0  0  0  0  0
    9.0947    1.6173   -2.5845 C   0  0  0  0  0  0  0  0  0  0  0  0
    9.9884    2.2241   -3.6717 C   0  0  0  0  0  0  0  0  0  0  0  0
   11.5157    2.0011   -3.5676 C   0  0  3  0  0  0  0  0  0  0  0  0
   11.8591    0.5767   -3.4555 N   0  0  0  0  0  0  0  0  0  0  0  0
   12.6251    0.0795   -2.4283 C   0  0  0  0  0  0  0  0  0  0  0  0
   13.3242    0.7625   -1.6972 O   0  0  0  0  0  0  0  0  0  0  0  0
   12.4484   -1.2644   -2.3124 O   0  0  0  0  0  0  0  0  0  0  0  0
   13.3258   -1.9474   -1.3896 C   0  0  0  0  0  0  0  0  0  0  0  0
   12.6123   -2.6760   -0.2625 C   0  0  0  0  0  0  0  0  0  0  0  0
   11.6233   -3.6391   -0.5122 C   0  0  0  0  0  0  0  0  0  0  0  0
   11.0694   -4.3867    0.5369 C   0  0  0  0  0  0  0  0  0  0  0  0
   11.4914   -4.1780    1.8501 C   0  0  0  0  0  0  0  0  0  0  0  0
   12.4599   -3.2142    2.1174 C   0  0  0  0  0  0  0  0  0  0  0  0
   13.0267   -2.4819    1.0686 C   0  0  0  0  0  0  0  0  0  0  0  0
   12.2055    2.8511   -4.6454 C   0  0  0  0  0  0  0  0  0  0  0  0
   11.6934    3.8982   -5.0452 O   0  0  0  0  0  0  0  0  0  0  0  0
   13.4895    2.4463   -4.9676 N   0  0  0  0  0  0  0  0  0  0  0  0
   14.2302    3.2377   -5.8636 C   0  0  0  0  0  0  0  0  0  0  0  0
   14.4669    4.5896   -5.5843 C   0  0  0  0  0  0  0  0  0  0  0  0
   15.0584    5.4065   -6.5443 C   0  0  0  0  0  0  0  0  0  0  0  0
   15.3936    4.8743   -7.7873 C   0  0  0  0  0  0  0  0  0  0  0  0
   15.1854    3.5181   -8.0504 C   0  0  0  0  0  0  0  0  0  0  0  0
   14.6340    2.6869   -7.0753 C   0  0  0  0  0  0  0  0  0  0  0  0
    9.9288   -2.2838    1.4034 H   0  0  0  0  0  0  0  0  0  0  0  0
    9.7083    0.0441    0.5289 H   0  0  0  0  0  0  0  0  0  0  0  0
   11.2137   -0.5490    1.2310 H   0  0  0  0  0  0  0  0  0  0  0  0
   11.1311    3.2633    1.0844 H   0  0  0  0  0  0  0  0  0  0  0  0
   10.9804    1.1244   -0.7735 H   0  0  0  0  0  0  0  0  0  0  0  0
   11.2557    2.8633   -1.0167 H   0  0  0  0  0  0  0  0  0  0  0  0
    8.9218    3.3118   -1.2370 H   0  0  0  0  0  0  0  0  0  0  0  0
    8.4622    1.7682   -0.5406 H   0  0  0  0  0  0  0  0  0  0  0  0
    8.0544    1.7438   -2.9163 H   0  0  0  0  0  0  0  0  0  0  0  0
    9.2577    0.5354   -2.5234 H   0  0  0  0  0  0  0  0  0  0  0  0
    9.7682    3.2990   -3.7154 H   0  0  0  0  0  0  0  0  0  0  0  0
    9.6586    1.8162   -4.6379 H   0  0  0  0  0  0  0  0  0  0  0  0
   11.9098    2.4918   -2.6835 H   0  0  0  0  0  0  0  0  0  0  0  0
   11.3133   -0.1030   -3.9667 H   0  0  0  0  0  0  0  0  0  0  0  0
   14.0909   -1.2801   -0.9772 H   0  0  0  0  0  0  0  0  0  0  0  0
   13.8642   -2.7018   -1.9747 H   0  0  0  0  0  0  0  0  0  0  0  0
   11.2963   -3.8400   -1.5304 H   0  0  0  0  0  0  0  0  0  0  0  0
   10.3048   -5.1344    0.3349 H   0  0  0  0  0  0  0  0  0  0  0  0
   11.0402   -4.7365    2.6694 H   0  0  0  0  0  0  0  0  0  0  0  0
   12.7732   -3.0314    3.1448 H   0  0  0  0  0  0  0  0  0  0  0  0
   13.7967   -1.7486    1.3069 H   0  0  0  0  0  0  0  0  0  0  0  0
   13.6186    1.4429   -4.9910 H   0  0  0  0  0  0  0  0  0  0  0  0
   14.1715    5.0171   -4.6287 H   0  0  0  0  0  0  0  0  0  0  0  0
   15.2230    6.4600   -6.3332 H   0  0  0  0  0  0  0  0  0  0  0  0
   15.8032    5.5215   -8.5580 H   0  0  0  0  0  0  0  0  0  0  0  0
   15.4209    3.1157   -9.0314 H   0  0  0  0  0  0  0  0  0  0  0  0
   14.4321    1.6467   -7.3083 H   0  0  0  0  0  0  0  0  0  0  0  0
  1  2  2  0  0  0  0
  2  3  1  0  0  0  0
  2  4  1  0  0  0  0
  3 33  1  0  0  0  0
  4  5  1  0  0  0  0
  4 34  1  0  0  0  0
  4 35  1  0  0  0  0
  5  6  2  0  0  0  0
  5  7  1  0  0  0  0
  7  8  1  0  0  0  0
  7 36  1  0  0  0  0
  8  9  1  0  0  0  0
  8 37  1  0  0  0  0
  8 38  1  0  0  0  0
  9 10  1  0  0  0  0
  9 39  1  0  0  0  0
  9 40  1  0  0  0  0
 10 11  1  0  0  0  0
 10 41  1  0  0  0  0
 10 42  1  0  0  0  0
 11 12  1  0  0  0  0
 11 43  1  0  0  0  0
 11 44  1  0  0  0  0
 12 13  1  0  0  0  0
 12 24  1  0  0  0  0
 12 45  1  0  0  0  0
 13 14  1  0  0  0  0
 13 46  1  0  0  0  0
 14 15  2  0  0  0  0
 14 16  1  0  0  0  0
 16 17  1  0  0  0  0
 17 18  1  0  0  0  0
 17 47  1  0  0  0  0
 17 48  1  0  0  0  0
 18 19  2  0  0  0  0
 18 23  1  0  0  0  0
 19 20  1  0  0  0  0
 19 49  1  0  0  0  0
 20 21  2  0  0  0  0
 20 50  1  0  0  0  0
 21 22  1  0  0  0  0
 21 51  1  0  0  0  0
 22 23  2  0  0  0  0
 22 52  1  0  0  0  0
 23 53  1  0  0  0  0
 24 25  2  0  0  0  0
 24 26  1  0  0  0  0
 26 27  1  0  0  0  0
 26 54  1  0  0  0  0
 27 28  2  0  0  0  0
 27 32  1  0  0  0  0
 28 29  1  0  0  0  0
 28 55  1  0  0  0  0
 29 30  2  0  0  0  0
 29 56  1  0  0  0  0
 30 31  1  0  0  0  0
 30 57  1  0  0  0  0
 31 32  2  0  0  0  0
 31 58  1  0  0  0  0
 32 59  1  0  0  0  0
M  END
$$$$
