MODEL 1
REMARK VINA RESULT:    -8.723      0.000      0.000
REMARK INTER + INTRA:         -35.799
REMARK INTER:                 -27.847
REMARK INTRA:                  -7.953
REMARK UNBOUND:                -7.953
REMARK SMILES C=C(N[C@H](CCCCNC(=O)C[C@@H](Sc1ccc2ccccc2c1)C(=O)O)C(=O)N[C@H](CCC(=O)O)C(=O)N[C@H](Cc1ccc(O)cc1)C(=O)NCC(=O)N[C@@H](C(N)=O)C(C)C)[C@@H](CCC)NC(=O)[C@@H](NC(=O)CNC)C(C)C
REMARK SMILES IDX 4 1 3 2 2 4 1 5 63 6 64 7 65 8 66 9 67 10 68 11 69 13 70 14
REMARK SMILES IDX 71 15 72 16 73 18 74 19 75 20 76 21 77 23 78 24 79 25 5 26
REMARK SMILES IDX 6 27 7 28 8 29 9 30 10 31 11 33 12 34 13 35 14 36 15 37
REMARK SMILES IDX 16 38 24 39 17 40 23 41 18 42 22 43 19 44 21 45 20 46 25 47
REMARK SMILES IDX 26 48 27 49 28 51 29 52 30 53 31 55 32 56 33 57 34 58 35 59
REMARK SMILES IDX 36 60 37 62 38 63 39 64 40 66 41 67 42 68 43 69 48 70 44 71
REMARK SMILES IDX 47 72 45 73 46 74 49 76 50 77 51 78 52 80 53 81 54 82 55 83
REMARK SMILES IDX 56 85 57 86 58 87 59 88 60 91 61 92 62 93
REMARK H PARENT 3 3 67 12 71 17 75 22 9 32 27 50 30 54 36 61 39 65 46 75 51 79
REMARK H PARENT 55 84 58 89 58 90
REMARK Flexibility Score: inf
ROOT
ATOM      1  C   UNL     1      15.039  15.459  -2.995  1.00  0.00     0.168 C 
ENDROOT
BRANCH   1   2
ATOM      2  N   UNL     1      15.052  16.240  -1.720  1.00  0.00    -0.376 N 
ATOM      3  H   UNL     1      16.021  16.307  -1.361  1.00  0.00     0.161 HD
BRANCH   2   4
ATOM      4  C   UNL     1      14.354  17.373  -1.281  1.00  0.00     0.027 C 
ATOM      5  C   UNL     1      14.911  18.597  -1.229  1.00  0.00     0.034 C 
BRANCH   4   6
ATOM      6  C   UNL     1      12.821  17.270  -0.960  1.00  0.00     0.128 C 
BRANCH   6   7
ATOM      7  C   UNL     1      12.301  18.508  -0.168  1.00  0.00     0.031 C 
BRANCH   7   8
ATOM      8  C   UNL     1      11.677  19.600  -1.058  1.00  0.00    -0.001 C 
ATOM      9  C   UNL     1      12.060  21.015  -0.636  1.00  0.00     0.004 C 
ENDBRANCH   7   8
ENDBRANCH   6   7
BRANCH   6  10
ATOM     10  N   UNL     1      11.904  16.842  -2.032  1.00  0.00    -0.346 N 
ATOM     11  C   UNL     1      10.629  16.339  -2.045  1.00  0.00     0.243 C 
ATOM     12  H   UNL     1      12.265  17.035  -2.966  1.00  0.00     0.164 HD
ATOM     13  O   UNL     1       9.921  16.231  -1.038  1.00  0.00    -0.273 OA
BRANCH  11  14
ATOM     14  C   UNL     1      10.072  15.943  -3.460  1.00  0.00     0.173 C 
BRANCH  14  15
ATOM     15  N   UNL     1       9.258  14.720  -3.381  1.00  0.00    -0.343 N 
ATOM     16  C   UNL     1       9.568  13.538  -4.003  1.00  0.00     0.234 C 
ATOM     17  H   UNL     1       8.337  14.764  -2.947  1.00  0.00     0.164 HD
ATOM     18  O   UNL     1      10.548  13.431  -4.754  1.00  0.00    -0.274 OA
BRANCH  16  19
ATOM     19  C   UNL     1       8.682  12.341  -3.649  1.00  0.00     0.181 C 
BRANCH  19  20
ATOM     20  N   UNL     1       8.325  12.346  -2.219  1.00  0.00    -0.311 NA
ATOM     21  C   UNL     1       6.913  12.713  -2.063  1.00  0.00     0.101 C 
ATOM     22  H   UNL     1       8.888  13.055  -1.746  1.00  0.00     0.122 HD
ENDBRANCH  19  20
ENDBRANCH  16  19
ENDBRANCH  14  15
BRANCH  14  23
ATOM     23  C   UNL     1       9.384  17.108  -4.237  1.00  0.00     0.015 C 
ATOM     24  C   UNL     1      10.290  18.343  -4.320  1.00  0.00     0.010 C 
ATOM     25  C   UNL     1       8.990  16.723  -5.674  1.00  0.00     0.010 C 
ENDBRANCH  14  23
ENDBRANCH  11  14
ENDBRANCH   6  10
ENDBRANCH   4   6
ENDBRANCH   2   4
ENDBRANCH   1   2
BRANCH   1  26
ATOM     26  C   UNL     1      14.670  16.230  -4.279  1.00  0.00     0.035 C 
BRANCH  26  27
ATOM     27  C   UNL     1      14.311  15.420  -5.531  1.00  0.00     0.004 C 
BRANCH  27  28
ATOM     28  C   UNL     1      12.885  15.632  -6.049  1.00  0.00     0.021 C 
BRANCH  28  29
ATOM     29  C   UNL     1      12.898  15.924  -7.550  1.00  0.00     0.116 C 
BRANCH  29  30
ATOM     30  N   UNL     1      13.433  17.235  -7.853  1.00  0.00    -0.356 N 
ATOM     31  C   UNL     1      12.614  18.346  -7.862  1.00  0.00     0.221 C 
ATOM     32  H   UNL     1      14.420  17.336  -8.054  1.00  0.00     0.163 HD
ATOM     33  O   UNL     1      11.402  18.292  -7.690  1.00  0.00    -0.275 OA
BRANCH  31  34
ATOM     34  C   UNL     1      13.345  19.637  -8.148  1.00  0.00     0.126 C 
BRANCH  34  35
ATOM     35  C   UNL     1      14.356  19.985  -7.058  1.00  0.00     0.170 C 
BRANCH  35  36
ATOM     36  S   UNL     1      13.801  19.606  -5.326  1.00  0.00    -0.110 SA
BRANCH  36  37
ATOM     37  C   UNL     1      13.773  21.210  -4.548  1.00  0.00     0.009 A 
ATOM     38  C   UNL     1      12.846  22.172  -4.956  1.00  0.00     0.016 A 
ATOM     39  C   UNL     1      14.567  21.459  -3.424  1.00  0.00     0.023 A 
ATOM     40  C   UNL     1      12.705  23.368  -4.245  1.00  0.00     0.010 A 
ATOM     41  C   UNL     1      14.433  22.653  -2.696  1.00  0.00    -0.017 A 
ATOM     42  C   UNL     1      13.474  23.612  -3.102  1.00  0.00    -0.018 A 
ATOM     43  C   UNL     1      15.207  22.907  -1.553  1.00  0.00     0.009 A 
ATOM     44  C   UNL     1      13.293  24.773  -2.335  1.00  0.00     0.009 A 
ATOM     45  C   UNL     1      15.014  24.069  -0.803  1.00  0.00     0.001 A 
ATOM     46  C   UNL     1      14.050  24.994  -1.188  1.00  0.00     0.001 A 
ENDBRANCH  36  37
ENDBRANCH  35  36
BRANCH  35  47
ATOM     47  C   UNL     1      15.707  19.343  -7.351  1.00  0.00     0.317 C 
ATOM     48  O   UNL     1      16.271  18.556  -6.603  1.00  0.00    -0.251 OA
BRANCH  47  49
ATOM     49  O   UNL     1      16.219  19.648  -8.569  1.00  0.00    -0.480 OA
ATOM     50  H   UNL     1      17.120  20.025  -8.485  1.00  0.00     0.296 HD
ENDBRANCH  47  49
ENDBRANCH  35  47
ENDBRANCH  34  35
ENDBRANCH  31  34
ENDBRANCH  29  30
ENDBRANCH  28  29
ENDBRANCH  27  28
ENDBRANCH  26  27
ENDBRANCH   1  26
BRANCH   1  51
ATOM     51  C   UNL     1      14.219  14.123  -2.947  1.00  0.00     0.243 C 
ATOM     52  O   UNL     1      13.023  14.119  -2.654  1.00  0.00    -0.273 OA
ATOM     53  N   UNL     1      14.910  12.960  -3.153  1.00  0.00    -0.343 N 
ATOM     54  H   UNL     1      15.821  13.143  -3.563  1.00  0.00     0.164 HD
BRANCH  53  55
ATOM     55  C   UNL     1      14.397  11.594  -3.338  1.00  0.00     0.172 C 
BRANCH  55  56
ATOM     56  C   UNL     1      13.631  11.378  -4.652  1.00  0.00     0.047 C 
BRANCH  56  57
ATOM     57  C   UNL     1      14.467  10.760  -5.759  1.00  0.00     0.125 C 
BRANCH  57  58
ATOM     58  C   UNL     1      13.643  10.561  -7.003  1.00  0.00     0.303 C 
ATOM     59  O   UNL     1      12.609  11.144  -7.237  1.00  0.00    -0.252 OA
BRANCH  58  60
ATOM     60  O   UNL     1      14.152   9.648  -7.866  1.00  0.00    -0.481 OA
ATOM     61  H   UNL     1      13.503   8.961  -8.092  1.00  0.00     0.296 HD
ENDBRANCH  58  60
ENDBRANCH  57  58
ENDBRANCH  56  57
ENDBRANCH  55  56
BRANCH  55  62
ATOM     62  C   UNL     1      13.590  10.854  -2.236  1.00  0.00     0.243 C 
ATOM     63  O   UNL     1      13.728  11.156  -1.048  1.00  0.00    -0.273 OA
ATOM     64  N   UNL     1      12.882   9.749  -2.601  1.00  0.00    -0.342 N 
ATOM     65  H   UNL     1      12.907   9.476  -3.583  1.00  0.00     0.164 HD
BRANCH  64  66
ATOM     66  C   UNL     1      12.364   8.760  -1.641  1.00  0.00     0.175 C 
BRANCH  66  67
ATOM     67  C   UNL     1      12.574   7.319  -2.162  1.00  0.00     0.070 C 
BRANCH  67  68
ATOM     68  C   UNL     1      13.525   6.444  -1.361  1.00  0.00    -0.045 A 
ATOM     69  C   UNL     1      14.538   5.696  -1.981  1.00  0.00     0.007 A 
ATOM     70  C   UNL     1      13.454   6.435   0.043  1.00  0.00     0.007 A 
ATOM     71  C   UNL     1      15.456   4.961  -1.217  1.00  0.00     0.046 A 
ATOM     72  C   UNL     1      14.368   5.701   0.804  1.00  0.00     0.046 A 
ATOM     73  C   UNL     1      15.365   4.974   0.170  1.00  0.00     0.115 A 
BRANCH  73  74
ATOM     74  O   UNL     1      16.249   4.292   0.952  1.00  0.00    -0.508 OA
ATOM     75  H   UNL     1      16.619   4.901   1.611  1.00  0.00     0.293 HD
ENDBRANCH  73  74
ENDBRANCH  67  68
ENDBRANCH  66  67
BRANCH  66  76
ATOM     76  C   UNL     1      10.855   9.007  -1.333  1.00  0.00     0.243 C 
ATOM     77  O   UNL     1      10.296  10.085  -1.532  1.00  0.00    -0.273 OA
ATOM     78  N   UNL     1      10.140   7.888  -0.963  1.00  0.00    -0.345 N 
ATOM     79  H   UNL     1      10.590   6.978  -1.060  1.00  0.00     0.164 HD
BRANCH  78  80
ATOM     80  C   UNL     1       8.712   7.899  -0.708  1.00  0.00     0.216 C 
BRANCH  80  81
ATOM     81  C   UNL     1       7.942   8.426  -1.932  1.00  0.00     0.240 C 
ATOM     82  O   UNL     1       7.109   9.331  -1.867  1.00  0.00    -0.273 OA
ATOM     83  N   UNL     1       8.260   7.810  -3.124  1.00  0.00    -0.343 N 
ATOM     84  H   UNL     1       9.121   7.279  -3.188  1.00  0.00     0.164 HD
BRANCH  83  85
ATOM     85  C   UNL     1       7.600   8.186  -4.383  1.00  0.00     0.173 C 
BRANCH  85  86
ATOM     86  C   UNL     1       8.600   9.039  -5.190  1.00  0.00     0.240 C 
ATOM     87  N   UNL     1       8.049   9.754  -6.217  1.00  0.00    -0.368 N 
ATOM     88  O   UNL     1       9.789   9.161  -4.910  1.00  0.00    -0.273 OA
ATOM     89  H   UNL     1       7.046   9.936  -6.215  1.00  0.00     0.159 HD
ATOM     90  H   UNL     1       8.649  10.410  -6.695  1.00  0.00     0.159 HD
ENDBRANCH  85  86
BRANCH  85  91
ATOM     91  C   UNL     1       7.152   6.940  -5.182  1.00  0.00     0.015 C 
ATOM     92  C   UNL     1       7.767   5.659  -4.605  1.00  0.00     0.010 C 
ATOM     93  C   UNL     1       5.624   6.791  -5.177  1.00  0.00     0.010 C 
ENDBRANCH  85  91
ENDBRANCH  83  85
ENDBRANCH  80  81
ENDBRANCH  78  80
ENDBRANCH  66  76
ENDBRANCH  64  66
ENDBRANCH  55  62
ENDBRANCH  53  55
ENDBRANCH   1  51
TORSDOF 39
ENDMDL
MODEL 2
REMARK VINA RESULT:    -8.696      2.398      5.346
REMARK INTER + INTRA:         -35.712
REMARK INTER:                 -26.463
REMARK INTRA:                  -9.249
REMARK UNBOUND:                -7.953
REMARK SMILES C=C(N[C@H](CCCCNC(=O)C[C@@H](Sc1ccc2ccccc2c1)C(=O)O)C(=O)N[C@H](CCC(=O)O)C(=O)N[C@H](Cc1ccc(O)cc1)C(=O)NCC(=O)N[C@@H](C(N)=O)C(C)C)[C@@H](CCC)NC(=O)[C@@H](NC(=O)CNC)C(C)C
REMARK SMILES IDX 4 1 3 2 2 4 1 5 63 6 64 7 65 8 66 9 67 10 68 11 69 13 70 14
REMARK SMILES IDX 71 15 72 16 73 18 74 19 75 20 76 21 77 23 78 24 79 25 5 26
REMARK SMILES IDX 6 27 7 28 8 29 9 30 10 31 11 33 12 34 13 35 14 36 15 37
REMARK SMILES IDX 16 38 24 39 17 40 23 41 18 42 22 43 19 44 21 45 20 46 25 47
REMARK SMILES IDX 26 48 27 49 28 51 29 52 30 53 31 55 32 56 33 57 34 58 35 59
REMARK SMILES IDX 36 60 37 62 38 63 39 64 40 66 41 67 42 68 43 69 48 70 44 71
REMARK SMILES IDX 47 72 45 73 46 74 49 76 50 77 51 78 52 80 53 81 54 82 55 83
REMARK SMILES IDX 56 85 57 86 58 87 59 88 60 91 61 92 62 93
REMARK H PARENT 3 3 67 12 71 17 75 22 9 32 27 50 30 54 36 61 39 65 46 75 51 79
REMARK H PARENT 55 84 58 89 58 90
REMARK Flexibility Score: inf
ROOT
ATOM      1  C   UNL     1      14.145  15.321  -3.283  1.00  0.00     0.168 C 
ENDROOT
BRANCH   1   2
ATOM      2  N   UNL     1      13.872  16.214  -2.114  1.00  0.00    -0.376 N 
ATOM      3  H   UNL     1      14.662  16.871  -1.984  1.00  0.00     0.161 HD
BRANCH   2   4
ATOM      4  C   UNL     1      12.713  16.837  -1.633  1.00  0.00     0.027 C 
ATOM      5  C   UNL     1      12.448  16.968  -0.321  1.00  0.00     0.034 C 
BRANCH   4   6
ATOM      6  C   UNL     1      11.731  17.540  -2.636  1.00  0.00     0.128 C 
BRANCH   6   7
ATOM      7  C   UNL     1      10.236  17.308  -2.257  1.00  0.00     0.031 C 
BRANCH   7   8
ATOM      8  C   UNL     1       9.772  15.847  -2.420  1.00  0.00    -0.001 C 
ATOM      9  C   UNL     1       9.635  15.417  -3.877  1.00  0.00     0.004 C 
ENDBRANCH   7   8
ENDBRANCH   6   7
BRANCH   6  10
ATOM     10  N   UNL     1      12.016  18.927  -3.045  1.00  0.00    -0.346 N 
ATOM     11  C   UNL     1      13.168  19.622  -3.307  1.00  0.00     0.243 C 
ATOM     12  H   UNL     1      11.173  19.461  -3.257  1.00  0.00     0.164 HD
ATOM     13  O   UNL     1      14.293  19.108  -3.326  1.00  0.00    -0.273 OA
BRANCH  11  14
ATOM     14  C   UNL     1      12.979  21.145  -3.643  1.00  0.00     0.173 C 
BRANCH  14  15
ATOM     15  N   UNL     1      13.791  21.985  -2.751  1.00  0.00    -0.343 N 
ATOM     16  C   UNL     1      13.433  22.339  -1.475  1.00  0.00     0.234 C 
ATOM     17  H   UNL     1      14.618  22.452  -3.123  1.00  0.00     0.164 HD
ATOM     18  O   UNL     1      12.336  22.023  -0.993  1.00  0.00    -0.274 OA
BRANCH  16  19
ATOM     19  C   UNL     1      14.499  23.072  -0.657  1.00  0.00     0.181 C 
BRANCH  19  20
ATOM     20  N   UNL     1      14.233  24.521  -0.610  1.00  0.00    -0.311 NA
ATOM     21  C   UNL     1      15.079  25.210  -1.590  1.00  0.00     0.101 C 
ATOM     22  H   UNL     1      14.483  24.866   0.319  1.00  0.00     0.122 HD
ENDBRANCH  19  20
ENDBRANCH  16  19
ENDBRANCH  14  15
BRANCH  14  23
ATOM     23  C   UNL     1      13.132  21.500  -5.155  1.00  0.00     0.015 C 
ATOM     24  C   UNL     1      13.133  20.242  -6.032  1.00  0.00     0.010 C 
ATOM     25  C   UNL     1      12.018  22.427  -5.672  1.00  0.00     0.010 C 
ENDBRANCH  14  23
ENDBRANCH  11  14
ENDBRANCH   6  10
ENDBRANCH   4   6
ENDBRANCH   2   4
ENDBRANCH   1   2
BRANCH   1  26
ATOM     26  C   UNL     1      13.693  15.830  -4.667  1.00  0.00     0.035 C 
BRANCH  26  27
ATOM     27  C   UNL     1      14.578  15.511  -5.879  1.00  0.00     0.004 C 
BRANCH  27  28
ATOM     28  C   UNL     1      16.005  16.060  -5.797  1.00  0.00     0.021 C 
BRANCH  28  29
ATOM     29  C   UNL     1      16.057  17.497  -6.320  1.00  0.00     0.116 C 
BRANCH  29  30
ATOM     30  N   UNL     1      15.438  17.633  -7.621  1.00  0.00    -0.356 N 
ATOM     31  C   UNL     1      15.606  18.783  -8.366  1.00  0.00     0.221 C 
ATOM     32  H   UNL     1      14.880  16.872  -7.990  1.00  0.00     0.163 HD
ATOM     33  O   UNL     1      16.215  19.766  -7.961  1.00  0.00    -0.275 OA
BRANCH  31  34
ATOM     34  C   UNL     1      14.932  18.736  -9.717  1.00  0.00     0.126 C 
BRANCH  34  35
ATOM     35  C   UNL     1      14.453  17.331 -10.078  1.00  0.00     0.170 C 
BRANCH  35  36
ATOM     36  S   UNL     1      12.737  17.247 -10.783  1.00  0.00    -0.110 SA
BRANCH  36  37
ATOM     37  C   UNL     1      11.698  17.520  -9.359  1.00  0.00     0.009 A 
ATOM     38  C   UNL     1      11.720  16.621  -8.292  1.00  0.00     0.016 A 
ATOM     39  C   UNL     1      10.977  18.712  -9.234  1.00  0.00     0.023 A 
ATOM     40  C   UNL     1      11.038  16.910  -7.106  1.00  0.00     0.010 A 
ATOM     41  C   UNL     1      10.293  19.020  -8.047  1.00  0.00    -0.017 A 
ATOM     42  C   UNL     1      10.340  18.114  -6.961  1.00  0.00    -0.018 A 
ATOM     43  C   UNL     1       9.584  20.223  -7.899  1.00  0.00     0.009 A 
ATOM     44  C   UNL     1       9.713  18.453  -5.752  1.00  0.00     0.009 A 
ATOM     45  C   UNL     1       8.964  20.543  -6.689  1.00  0.00     0.001 A 
ATOM     46  C   UNL     1       9.040  19.663  -5.614  1.00  0.00     0.001 A 
ENDBRANCH  36  37
ENDBRANCH  35  36
BRANCH  35  47
ATOM     47  C   UNL     1      15.455  16.638 -10.994  1.00  0.00     0.317 C 
ATOM     48  O   UNL     1      15.233  16.350 -12.162  1.00  0.00    -0.251 OA
BRANCH  47  49
ATOM     49  O   UNL     1      16.672  16.430 -10.436  1.00  0.00    -0.480 OA
ATOM     50  H   UNL     1      16.623  15.745  -9.735  1.00  0.00     0.296 HD
ENDBRANCH  47  49
ENDBRANCH  35  47
ENDBRANCH  34  35
ENDBRANCH  31  34
ENDBRANCH  29  30
ENDBRANCH  28  29
ENDBRANCH  27  28
ENDBRANCH  26  27
ENDBRANCH   1  26
BRANCH   1  51
ATOM     51  C   UNL     1      13.678  13.834  -3.107  1.00  0.00     0.243 C 
ATOM     52  O   UNL     1      12.491  13.555  -2.934  1.00  0.00    -0.273 OA
ATOM     53  N   UNL     1      14.653  12.876  -3.060  1.00  0.00    -0.343 N 
ATOM     54  H   UNL     1      15.538  13.237  -3.402  1.00  0.00     0.164 HD
BRANCH  53  55
ATOM     55  C   UNL     1      14.519  11.411  -3.078  1.00  0.00     0.172 C 
BRANCH  55  56
ATOM     56  C   UNL     1      14.308  10.812  -4.477  1.00  0.00     0.047 C 
BRANCH  56  57
ATOM     57  C   UNL     1      13.981  11.842  -5.545  1.00  0.00     0.125 C 
BRANCH  57  58
ATOM     58  C   UNL     1      12.503  11.864  -5.832  1.00  0.00     0.303 C 
ATOM     59  O   UNL     1      12.002  12.410  -6.789  1.00  0.00    -0.252 OA
BRANCH  58  60
ATOM     60  O   UNL     1      11.749  11.216  -4.912  1.00  0.00    -0.481 OA
ATOM     61  H   UNL     1      10.981  10.778  -5.316  1.00  0.00     0.296 HD
ENDBRANCH  58  60
ENDBRANCH  57  58
ENDBRANCH  56  57
ENDBRANCH  55  56
BRANCH  55  62
ATOM     62  C   UNL     1      13.550  10.655  -2.129  1.00  0.00     0.243 C 
ATOM     63  O   UNL     1      13.468  10.966  -0.938  1.00  0.00    -0.273 OA
ATOM     64  N   UNL     1      12.946   9.529  -2.603  1.00  0.00    -0.342 N 
ATOM     65  H   UNL     1      13.152   9.252  -3.563  1.00  0.00     0.164 HD
BRANCH  64  66
ATOM     66  C   UNL     1      12.294   8.530  -1.741  1.00  0.00     0.175 C 
BRANCH  66  67
ATOM     67  C   UNL     1      12.677   7.094  -2.166  1.00  0.00     0.070 C 
BRANCH  67  68
ATOM     68  C   UNL     1      13.690   6.378  -1.288  1.00  0.00    -0.045 A 
ATOM     69  C   UNL     1      13.632   6.448   0.113  1.00  0.00     0.007 A 
ATOM     70  C   UNL     1      14.668   5.556  -1.873  1.00  0.00     0.007 A 
ATOM     71  C   UNL     1      14.525   5.713   0.906  1.00  0.00     0.046 A 
ATOM     72  C   UNL     1      15.561   4.825  -1.083  1.00  0.00     0.046 A 
ATOM     73  C   UNL     1      15.479   4.904   0.299  1.00  0.00     0.115 A 
BRANCH  73  74
ATOM     74  O   UNL     1      16.354   4.156   1.030  1.00  0.00    -0.508 OA
ATOM     75  H   UNL     1      17.059   3.837   0.444  1.00  0.00     0.293 HD
ENDBRANCH  73  74
ENDBRANCH  67  68
ENDBRANCH  66  67
BRANCH  66  76
ATOM     76  C   UNL     1      10.742   8.700  -1.752  1.00  0.00     0.243 C 
ATOM     77  O   UNL     1      10.045   8.574  -0.747  1.00  0.00    -0.273 OA
ATOM     78  N   UNL     1      10.210   9.155  -2.940  1.00  0.00    -0.345 N 
ATOM     79  H   UNL     1      10.855   9.486  -3.658  1.00  0.00     0.164 HD
BRANCH  78  80
ATOM     80  C   UNL     1       8.802   9.446  -3.125  1.00  0.00     0.216 C 
BRANCH  80  81
ATOM     81  C   UNL     1       8.563  10.964  -3.214  1.00  0.00     0.240 C 
ATOM     82  O   UNL     1       9.419  11.800  -2.920  1.00  0.00    -0.273 OA
ATOM     83  N   UNL     1       7.310  11.327  -3.659  1.00  0.00    -0.343 N 
ATOM     84  H   UNL     1       6.743  10.640  -4.143  1.00  0.00     0.164 HD
BRANCH  83  85
ATOM     85  C   UNL     1       6.917  12.738  -3.784  1.00  0.00     0.173 C 
BRANCH  85  86
ATOM     86  C   UNL     1       6.717  13.030  -5.286  1.00  0.00     0.240 C 
ATOM     87  N   UNL     1       6.582  14.353  -5.602  1.00  0.00    -0.368 N 
ATOM     88  O   UNL     1       6.757  12.176  -6.167  1.00  0.00    -0.273 OA
ATOM     89  H   UNL     1       6.910  15.058  -4.944  1.00  0.00     0.159 HD
ATOM     90  H   UNL     1       6.563  14.592  -6.583  1.00  0.00     0.159 HD
ENDBRANCH  85  86
BRANCH  85  91
ATOM     91  C   UNL     1       5.635  13.043  -2.976  1.00  0.00     0.015 C 
ATOM     92  C   UNL     1       5.237  11.852  -2.096  1.00  0.00     0.010 C 
ATOM     93  C   UNL     1       5.818  14.274  -2.077  1.00  0.00     0.010 C 
ENDBRANCH  85  91
ENDBRANCH  83  85
ENDBRANCH  80  81
ENDBRANCH  78  80
ENDBRANCH  66  76
ENDBRANCH  64  66
ENDBRANCH  55  62
ENDBRANCH  53  55
ENDBRANCH   1  51
TORSDOF 39
ENDMDL
MODEL 3
REMARK VINA RESULT:    -8.355      3.482     10.008
REMARK INTER + INTRA:         -34.625
REMARK INTER:                 -24.920
REMARK INTRA:                  -9.705
REMARK UNBOUND:                -7.953
REMARK SMILES C=C(N[C@H](CCCCNC(=O)C[C@@H](Sc1ccc2ccccc2c1)C(=O)O)C(=O)N[C@H](CCC(=O)O)C(=O)N[C@H](Cc1ccc(O)cc1)C(=O)NCC(=O)N[C@@H](C(N)=O)C(C)C)[C@@H](CCC)NC(=O)[C@@H](NC(=O)CNC)C(C)C
REMARK SMILES IDX 4 1 3 2 2 4 1 5 63 6 64 7 65 8 66 9 67 10 68 11 69 13 70 14
REMARK SMILES IDX 71 15 72 16 73 18 74 19 75 20 76 21 77 23 78 24 79 25 5 26
REMARK SMILES IDX 6 27 7 28 8 29 9 30 10 31 11 33 12 34 13 35 14 36 15 37
REMARK SMILES IDX 16 38 24 39 17 40 23 41 18 42 22 43 19 44 21 45 20 46 25 47
REMARK SMILES IDX 26 48 27 49 28 51 29 52 30 53 31 55 32 56 33 57 34 58 35 59
REMARK SMILES IDX 36 60 37 62 38 63 39 64 40 66 41 67 42 68 43 69 48 70 44 71
REMARK SMILES IDX 47 72 45 73 46 74 49 76 50 77 51 78 52 80 53 81 54 82 55 83
REMARK SMILES IDX 56 85 57 86 58 87 59 88 60 91 61 92 62 93
REMARK H PARENT 3 3 67 12 71 17 75 22 9 32 27 50 30 54 36 61 39 65 46 75 51 79
REMARK H PARENT 55 84 58 89 58 90
REMARK Flexibility Score: inf
ROOT
ATOM      1  C   UNL     1      12.084  11.857  -5.621  1.00  0.00     0.168 C 
ENDROOT
BRANCH   1   2
ATOM      2  N   UNL     1      10.710  11.298  -5.427  1.00  0.00    -0.376 N 
ATOM      3  H   UNL     1      10.775  10.324  -5.080  1.00  0.00     0.161 HD
BRANCH   2   4
ATOM      4  C   UNL     1       9.510  11.843  -4.952  1.00  0.00     0.027 C 
ATOM      5  C   UNL     1       8.677  12.559  -5.729  1.00  0.00     0.034 C 
BRANCH   4   6
ATOM      6  C   UNL     1       9.024  11.510  -3.497  1.00  0.00     0.128 C 
BRANCH   6   7
ATOM      7  C   UNL     1       7.513  11.835  -3.293  1.00  0.00     0.031 C 
BRANCH   7   8
ATOM      8  C   UNL     1       7.228  12.727  -2.068  1.00  0.00    -0.001 C 
ATOM      9  C   UNL     1       6.476  14.008  -2.416  1.00  0.00     0.004 C 
ENDBRANCH   7   8
ENDBRANCH   6   7
BRANCH   6  10
ATOM     10  N   UNL     1       9.426  10.225  -2.897  1.00  0.00    -0.346 N 
ATOM     11  C   UNL     1      10.550   9.794  -2.241  1.00  0.00     0.243 C 
ATOM     12  H   UNL     1       8.677   9.532  -2.898  1.00  0.00     0.164 HD
ATOM     13  O   UNL     1      11.493  10.532  -1.934  1.00  0.00    -0.273 OA
BRANCH  11  14
ATOM     14  C   UNL     1      10.559   8.275  -1.839  1.00  0.00     0.173 C 
BRANCH  14  15
ATOM     15  N   UNL     1       9.443   7.557  -2.473  1.00  0.00    -0.343 N 
ATOM     16  C   UNL     1       8.150   7.571  -2.017  1.00  0.00     0.234 C 
ATOM     17  H   UNL     1       9.640   6.898  -3.225  1.00  0.00     0.164 HD
ATOM     18  O   UNL     1       7.832   8.150  -0.969  1.00  0.00    -0.274 OA
BRANCH  16  19
ATOM     19  C   UNL     1       7.113   6.900  -2.921  1.00  0.00     0.181 C 
BRANCH  19  20
ATOM     20  N   UNL     1       6.508   7.871  -3.852  1.00  0.00    -0.311 NA
ATOM     21  C   UNL     1       5.294   8.436  -3.255  1.00  0.00     0.101 C 
ATOM     22  H   UNL     1       6.238   7.377  -4.705  1.00  0.00     0.122 HD
ENDBRANCH  19  20
ENDBRANCH  16  19
ENDBRANCH  14  15
BRANCH  14  23
ATOM     23  C   UNL     1      11.940   7.567  -2.006  1.00  0.00     0.015 C 
ATOM     24  C   UNL     1      12.728   7.552  -0.690  1.00  0.00     0.010 C 
ATOM     25  C   UNL     1      11.816   6.112  -2.491  1.00  0.00     0.010 C 
ENDBRANCH  14  23
ENDBRANCH  11  14
ENDBRANCH   6  10
ENDBRANCH   4   6
ENDBRANCH   2   4
ENDBRANCH   1   2
BRANCH   1  26
ATOM     26  C   UNL     1      13.245  11.101  -4.942  1.00  0.00     0.035 C 
BRANCH  26  27
ATOM     27  C   UNL     1      14.637  11.744  -4.966  1.00  0.00     0.004 C 
BRANCH  27  28
ATOM     28  C   UNL     1      15.077  12.377  -3.642  1.00  0.00     0.021 C 
BRANCH  28  29
ATOM     29  C   UNL     1      15.232  13.890  -3.797  1.00  0.00     0.116 C 
BRANCH  29  30
ATOM     30  N   UNL     1      14.674  14.619  -2.678  1.00  0.00    -0.356 N 
ATOM     31  C   UNL     1      14.687  16.000  -2.659  1.00  0.00     0.221 C 
ATOM     32  H   UNL     1      14.264  14.110  -1.905  1.00  0.00     0.163 HD
ATOM     33  O   UNL     1      15.218  16.682  -3.527  1.00  0.00    -0.275 OA
BRANCH  31  34
ATOM     34  C   UNL     1      14.021  16.597  -1.441  1.00  0.00     0.126 C 
BRANCH  34  35
ATOM     35  C   UNL     1      13.600  18.048  -1.663  1.00  0.00     0.170 C 
BRANCH  35  36
ATOM     36  S   UNL     1      11.867  18.451  -1.127  1.00  0.00    -0.110 SA
BRANCH  36  37
ATOM     37  C   UNL     1      10.864  17.722  -2.409  1.00  0.00     0.009 A 
ATOM     38  C   UNL     1      10.414  16.406  -2.285  1.00  0.00     0.016 A 
ATOM     39  C   UNL     1      10.393  18.508  -3.464  1.00  0.00     0.023 A 
ATOM     40  C   UNL     1       9.496  15.880  -3.199  1.00  0.00     0.010 A 
ATOM     41  C   UNL     1       9.465  17.998  -4.387  1.00  0.00    -0.017 A 
ATOM     42  C   UNL     1       8.995  16.671  -4.240  1.00  0.00    -0.018 A 
ATOM     43  C   UNL     1       8.966  18.784  -5.438  1.00  0.00     0.009 A 
ATOM     44  C   UNL     1       8.018  16.184  -5.121  1.00  0.00     0.009 A 
ATOM     45  C   UNL     1       7.995  18.281  -6.306  1.00  0.00     0.001 A 
ATOM     46  C   UNL     1       7.514  16.986  -6.139  1.00  0.00     0.001 A 
ENDBRANCH  36  37
ENDBRANCH  35  36
BRANCH  35  47
ATOM     47  C   UNL     1      14.604  19.004  -1.029  1.00  0.00     0.317 C 
ATOM     48  O   UNL     1      14.883  20.106  -1.480  1.00  0.00    -0.251 OA
BRANCH  47  49
ATOM     49  O   UNL     1      15.120  18.571   0.148  1.00  0.00    -0.480 OA
ATOM     50  H   UNL     1      14.583  17.838   0.516  1.00  0.00     0.296 HD
ENDBRANCH  47  49
ENDBRANCH  35  47
ENDBRANCH  34  35
ENDBRANCH  31  34
ENDBRANCH  29  30
ENDBRANCH  28  29
ENDBRANCH  27  28
ENDBRANCH  26  27
ENDBRANCH   1  26
BRANCH   1  51
ATOM     51  C   UNL     1      12.226  13.390  -5.320  1.00  0.00     0.243 C 
ATOM     52  O   UNL     1      11.924  13.854  -4.220  1.00  0.00    -0.273 OA
ATOM     53  N   UNL     1      12.607  14.196  -6.357  1.00  0.00    -0.343 N 
ATOM     54  H   UNL     1      12.994  13.651  -7.121  1.00  0.00     0.164 HD
BRANCH  53  55
ATOM     55  C   UNL     1      12.987  15.617  -6.339  1.00  0.00     0.172 C 
BRANCH  55  56
ATOM     56  C   UNL     1      11.845  16.582  -6.694  1.00  0.00     0.047 C 
BRANCH  56  57
ATOM     57  C   UNL     1      10.736  15.948  -7.516  1.00  0.00     0.125 C 
BRANCH  57  58
ATOM     58  C   UNL     1      10.757  16.464  -8.930  1.00  0.00     0.303 C 
ATOM     59  O   UNL     1      11.704  16.368  -9.677  1.00  0.00    -0.252 OA
BRANCH  58  60
ATOM     60  O   UNL     1       9.609  17.070  -9.317  1.00  0.00    -0.481 OA
ATOM     61  H   UNL     1       9.631  18.028  -9.154  1.00  0.00     0.296 HD
ENDBRANCH  58  60
ENDBRANCH  57  58
ENDBRANCH  56  57
ENDBRANCH  55  56
BRANCH  55  62
ATOM     62  C   UNL     1      14.249  16.147  -7.073  1.00  0.00     0.243 C 
ATOM     63  O   UNL     1      15.365  16.044  -6.557  1.00  0.00    -0.273 OA
ATOM     64  N   UNL     1      14.064  16.890  -8.200  1.00  0.00    -0.342 N 
ATOM     65  H   UNL     1      13.105  17.045  -8.510  1.00  0.00     0.164 HD
BRANCH  64  66
ATOM     66  C   UNL     1      15.109  17.737  -8.798  1.00  0.00     0.175 C 
BRANCH  66  67
ATOM     67  C   UNL     1      14.705  19.229  -8.758  1.00  0.00     0.070 C 
BRANCH  67  68
ATOM     68  C   UNL     1      14.222  19.761  -7.417  1.00  0.00    -0.045 A 
ATOM     69  C   UNL     1      12.892  20.162  -7.218  1.00  0.00     0.007 A 
ATOM     70  C   UNL     1      15.097  19.785  -6.317  1.00  0.00     0.007 A 
ATOM     71  C   UNL     1      12.448  20.572  -5.953  1.00  0.00     0.046 A 
ATOM     72  C   UNL     1      14.656  20.196  -5.056  1.00  0.00     0.046 A 
ATOM     73  C   UNL     1      13.334  20.580  -4.881  1.00  0.00     0.115 A 
BRANCH  73  74
ATOM     74  O   UNL     1      12.941  20.950  -3.630  1.00  0.00    -0.508 OA
ATOM     75  H   UNL     1      13.512  21.673  -3.323  1.00  0.00     0.293 HD
ENDBRANCH  73  74
ENDBRANCH  67  68
ENDBRANCH  66  67
BRANCH  66  76
ATOM     76  C   UNL     1      15.419  17.303 -10.264  1.00  0.00     0.243 C 
ATOM     77  O   UNL     1      16.188  17.921 -11.000  1.00  0.00    -0.273 OA
ATOM     78  N   UNL     1      14.892  16.085 -10.640  1.00  0.00    -0.345 N 
ATOM     79  H   UNL     1      14.480  15.498  -9.915  1.00  0.00     0.164 HD
BRANCH  78  80
ATOM     80  C   UNL     1      15.132  15.476 -11.934  1.00  0.00     0.216 C 
BRANCH  80  81
ATOM     81  C   UNL     1      14.067  15.919 -12.953  1.00  0.00     0.240 C 
ATOM     82  O   UNL     1      13.090  16.606 -12.654  1.00  0.00    -0.273 OA
ATOM     83  N   UNL     1      14.292  15.492 -14.245  1.00  0.00    -0.343 N 
ATOM     84  H   UNL     1      15.220  15.175 -14.503  1.00  0.00     0.164 HD
BRANCH  83  85
ATOM     85  C   UNL     1      13.359  15.816 -15.335  1.00  0.00     0.173 C 
BRANCH  85  86
ATOM     86  C   UNL     1      14.204  16.246 -16.552  1.00  0.00     0.240 C 
ATOM     87  N   UNL     1      13.534  16.988 -17.484  1.00  0.00    -0.368 N 
ATOM     88  O   UNL     1      15.408  16.034 -16.668  1.00  0.00    -0.273 OA
ATOM     89  H   UNL     1      12.671  17.461 -17.218  1.00  0.00     0.159 HD
ATOM     90  H   UNL     1      14.079  17.383 -18.237  1.00  0.00     0.159 HD
ENDBRANCH  85  86
BRANCH  85  91
ATOM     91  C   UNL     1      12.450  14.613 -15.678  1.00  0.00     0.015 C 
ATOM     92  C   UNL     1      13.120  13.285 -15.303  1.00  0.00     0.010 C 
ATOM     93  C   UNL     1      11.103  14.703 -14.948  1.00  0.00     0.010 C 
ENDBRANCH  85  91
ENDBRANCH  83  85
ENDBRANCH  80  81
ENDBRANCH  78  80
ENDBRANCH  66  76
ENDBRANCH  64  66
ENDBRANCH  55  62
ENDBRANCH  53  55
ENDBRANCH   1  51
TORSDOF 39
ENDMDL
MODEL 4
REMARK VINA RESULT:    -8.324      3.297      7.332
REMARK INTER + INTRA:         -34.524
REMARK INTER:                 -25.773
REMARK INTRA:                  -8.750
REMARK UNBOUND:                -7.953
REMARK SMILES C=C(N[C@H](CCCCNC(=O)C[C@@H](Sc1ccc2ccccc2c1)C(=O)O)C(=O)N[C@H](CCC(=O)O)C(=O)N[C@H](Cc1ccc(O)cc1)C(=O)NCC(=O)N[C@@H](C(N)=O)C(C)C)[C@@H](CCC)NC(=O)[C@@H](NC(=O)CNC)C(C)C
REMARK SMILES IDX 4 1 3 2 2 4 1 5 63 6 64 7 65 8 66 9 67 10 68 11 69 13 70 14
REMARK SMILES IDX 71 15 72 16 73 18 74 19 75 20 76 21 77 23 78 24 79 25 5 26
REMARK SMILES IDX 6 27 7 28 8 29 9 30 10 31 11 33 12 34 13 35 14 36 15 37
REMARK SMILES IDX 16 38 24 39 17 40 23 41 18 42 22 43 19 44 21 45 20 46 25 47
REMARK SMILES IDX 26 48 27 49 28 51 29 52 30 53 31 55 32 56 33 57 34 58 35 59
REMARK SMILES IDX 36 60 37 62 38 63 39 64 40 66 41 67 42 68 43 69 48 70 44 71
REMARK SMILES IDX 47 72 45 73 46 74 49 76 50 77 51 78 52 80 53 81 54 82 55 83
REMARK SMILES IDX 56 85 57 86 58 87 59 88 60 91 61 92 62 93
REMARK H PARENT 3 3 67 12 71 17 75 22 9 32 27 50 30 54 36 61 39 65 46 75 51 79
REMARK H PARENT 55 84 58 89 58 90
REMARK Flexibility Score: inf
ROOT
ATOM      1  C   UNL     1      12.132  18.860  -5.413  1.00  0.00     0.168 C 
ENDROOT
BRANCH   1   2
ATOM      2  N   UNL     1      13.588  18.524  -5.342  1.00  0.00    -0.376 N 
ATOM      3  H   UNL     1      13.716  17.630  -4.834  1.00  0.00     0.161 HD
BRANCH   2   4
ATOM      4  C   UNL     1      14.649  18.658  -6.247  1.00  0.00     0.027 C 
ATOM      5  C   UNL     1      15.561  19.643  -6.160  1.00  0.00     0.034 C 
BRANCH   4   6
ATOM      6  C   UNL     1      14.889  17.554  -7.337  1.00  0.00     0.128 C 
BRANCH   6   7
ATOM      7  C   UNL     1      14.724  16.113  -6.763  1.00  0.00     0.031 C 
BRANCH   7   8
ATOM      8  C   UNL     1      15.773  15.744  -5.695  1.00  0.00    -0.001 C 
ATOM      9  C   UNL     1      15.159  15.371  -4.349  1.00  0.00     0.004 C 
ENDBRANCH   7   8
ENDBRANCH   6   7
BRANCH   6  10
ATOM     10  N   UNL     1      14.266  17.724  -8.661  1.00  0.00    -0.346 N 
ATOM     11  C   UNL     1      13.020  17.453  -9.166  1.00  0.00     0.243 C 
ATOM     12  H   UNL     1      14.861  18.223  -9.322  1.00  0.00     0.164 HD
ATOM     13  O   UNL     1      12.073  17.049  -8.482  1.00  0.00    -0.273 OA
BRANCH  11  14
ATOM     14  C   UNL     1      12.834  17.739 -10.700  1.00  0.00     0.173 C 
BRANCH  14  15
ATOM     15  N   UNL     1      13.222  16.570 -11.504  1.00  0.00    -0.343 N 
ATOM     16  C   UNL     1      14.511  16.261 -11.855  1.00  0.00     0.234 C 
ATOM     17  H   UNL     1      12.495  16.008 -11.946  1.00  0.00     0.164 HD
ATOM     18  O   UNL     1      15.462  17.002 -11.571  1.00  0.00    -0.274 OA
BRANCH  16  19
ATOM     19  C   UNL     1      14.712  14.909 -12.544  1.00  0.00     0.181 C 
BRANCH  19  20
ATOM     20  N   UNL     1      15.456  15.059 -13.809  1.00  0.00    -0.311 NA
ATOM     21  C   UNL     1      14.538  15.465 -14.877  1.00  0.00     0.101 C 
ATOM     22  H   UNL     1      15.851  14.152 -14.062  1.00  0.00     0.122 HD
ENDBRANCH  19  20
ENDBRANCH  16  19
ENDBRANCH  14  15
BRANCH  14  23
ATOM     23  C   UNL     1      11.444  18.335 -11.086  1.00  0.00     0.015 C 
ATOM     24  C   UNL     1      11.152  19.629 -10.315  1.00  0.00     0.010 C 
ATOM     25  C   UNL     1      11.319  18.649 -12.587  1.00  0.00     0.010 C 
ENDBRANCH  14  23
ENDBRANCH  11  14
ENDBRANCH   6  10
ENDBRANCH   4   6
ENDBRANCH   2   4
ENDBRANCH   1   2
BRANCH   1  26
ATOM     26  C   UNL     1      11.643  20.024  -4.527  1.00  0.00     0.035 C 
BRANCH  26  27
ATOM     27  C   UNL     1      12.391  21.361  -4.613  1.00  0.00     0.004 C 
BRANCH  27  28
ATOM     28  C   UNL     1      12.126  22.167  -5.889  1.00  0.00     0.021 C 
BRANCH  28  29
ATOM     29  C   UNL     1      12.036  23.660  -5.570  1.00  0.00     0.116 C 
BRANCH  29  30
ATOM     30  N   UNL     1      13.077  24.095  -4.664  1.00  0.00    -0.356 N 
ATOM     31  C   UNL     1      13.485  25.414  -4.640  1.00  0.00     0.221 C 
ATOM     32  H   UNL     1      13.506  23.424  -4.039  1.00  0.00     0.163 HD
ATOM     33  O   UNL     1      13.056  26.267  -5.408  1.00  0.00    -0.275 OA
BRANCH  31  34
ATOM     34  C   UNL     1      14.545  25.702  -3.603  1.00  0.00     0.126 C 
BRANCH  34  35
ATOM     35  C   UNL     1      14.233  25.050  -2.258  1.00  0.00     0.170 C 
BRANCH  35  36
ATOM     36  S   UNL     1      15.465  23.774  -1.703  1.00  0.00    -0.110 SA
BRANCH  36  37
ATOM     37  C   UNL     1      14.447  22.356  -1.340  1.00  0.00     0.009 A 
ATOM     38  C   UNL     1      13.103  22.525  -1.000  1.00  0.00     0.016 A 
ATOM     39  C   UNL     1      14.942  21.065  -1.546  1.00  0.00     0.023 A 
ATOM     40  C   UNL     1      12.257  21.419  -0.876  1.00  0.00     0.010 A 
ATOM     41  C   UNL     1      14.104  19.943  -1.432  1.00  0.00    -0.017 A 
ATOM     42  C   UNL     1      12.737  20.126  -1.111  1.00  0.00    -0.018 A 
ATOM     43  C   UNL     1      14.582  18.643  -1.658  1.00  0.00     0.009 A 
ATOM     44  C   UNL     1      11.886  19.011  -1.063  1.00  0.00     0.009 A 
ATOM     45  C   UNL     1      13.720  17.546  -1.604  1.00  0.00     0.001 A 
ATOM     46  C   UNL     1      12.371  17.733  -1.319  1.00  0.00     0.001 A 
ENDBRANCH  36  37
ENDBRANCH  35  36
BRANCH  35  47
ATOM     47  C   UNL     1      14.021  26.107  -1.181  1.00  0.00     0.317 C 
ATOM     48  O   UNL     1      13.556  27.219  -1.391  1.00  0.00    -0.251 OA
BRANCH  47  49
ATOM     49  O   UNL     1      14.314  25.691   0.076  1.00  0.00    -0.480 OA
ATOM     50  H   UNL     1      13.693  26.083   0.727  1.00  0.00     0.296 HD
ENDBRANCH  47  49
ENDBRANCH  35  47
ENDBRANCH  34  35
ENDBRANCH  31  34
ENDBRANCH  29  30
ENDBRANCH  28  29
ENDBRANCH  27  28
ENDBRANCH  26  27
ENDBRANCH   1  26
BRANCH   1  51
ATOM     51  C   UNL     1      11.160  17.642  -5.239  1.00  0.00     0.243 C 
ATOM     52  O   UNL     1      11.436  16.708  -4.486  1.00  0.00    -0.273 OA
ATOM     53  N   UNL     1      10.043  17.618  -6.029  1.00  0.00    -0.343 N 
ATOM     54  H   UNL     1       9.868  18.529  -6.442  1.00  0.00     0.164 HD
BRANCH  53  55
ATOM     55  C   UNL     1       8.882  16.717  -5.972  1.00  0.00     0.172 C 
BRANCH  55  56
ATOM     56  C   UNL     1       7.656  17.309  -5.260  1.00  0.00     0.047 C 
BRANCH  56  57
ATOM     57  C   UNL     1       6.983  18.435  -6.025  1.00  0.00     0.125 C 
BRANCH  57  58
ATOM     58  C   UNL     1       7.306  19.770  -5.407  1.00  0.00     0.303 C 
ATOM     59  O   UNL     1       6.658  20.288  -4.525  1.00  0.00    -0.252 OA
BRANCH  58  60
ATOM     60  O   UNL     1       8.401  20.373  -5.929  1.00  0.00    -0.481 OA
ATOM     61  H   UNL     1       8.950  19.752  -6.436  1.00  0.00     0.296 HD
ENDBRANCH  58  60
ENDBRANCH  57  58
ENDBRANCH  56  57
ENDBRANCH  55  56
BRANCH  55  62
ATOM     62  C   UNL     1       8.997  15.245  -5.490  1.00  0.00     0.243 C 
ATOM     63  O   UNL     1       8.535  14.904  -4.398  1.00  0.00    -0.273 OA
ATOM     64  N   UNL     1       9.784  14.400  -6.213  1.00  0.00    -0.342 N 
ATOM     65  H   UNL     1      10.242  14.777  -7.042  1.00  0.00     0.164 HD
BRANCH  64  66
ATOM     66  C   UNL     1      10.267  13.104  -5.708  1.00  0.00     0.175 C 
BRANCH  66  67
ATOM     67  C   UNL     1      11.638  12.744  -6.326  1.00  0.00     0.070 C 
BRANCH  67  68
ATOM     68  C   UNL     1      12.766  12.462  -5.346  1.00  0.00    -0.045 A 
ATOM     69  C   UNL     1      12.610  12.656  -3.965  1.00  0.00     0.007 A 
ATOM     70  C   UNL     1      13.977  11.918  -5.809  1.00  0.00     0.007 A 
ATOM     71  C   UNL     1      13.634  12.312  -3.072  1.00  0.00     0.046 A 
ATOM     72  C   UNL     1      15.000  11.577  -4.919  1.00  0.00     0.046 A 
ATOM     73  C   UNL     1      14.819  11.771  -3.557  1.00  0.00     0.115 A 
BRANCH  73  74
ATOM     74  O   UNL     1      15.833  11.402  -2.724  1.00  0.00    -0.508 OA
ATOM     75  H   UNL     1      15.494  11.362  -1.816  1.00  0.00     0.293 HD
ENDBRANCH  73  74
ENDBRANCH  67  68
ENDBRANCH  66  67
BRANCH  66  76
ATOM     76  C   UNL     1       9.235  11.968  -5.987  1.00  0.00     0.243 C 
ATOM     77  O   UNL     1       8.219  12.134  -6.660  1.00  0.00    -0.273 OA
ATOM     78  N   UNL     1       9.612  10.714  -5.556  1.00  0.00    -0.345 N 
ATOM     79  H   UNL     1      10.572  10.586  -5.234  1.00  0.00     0.164 HD
BRANCH  78  80
ATOM     80  C   UNL     1       8.824   9.519  -5.789  1.00  0.00     0.216 C 
BRANCH  80  81
ATOM     81  C   UNL     1       9.051   8.486  -4.670  1.00  0.00     0.240 C 
ATOM     82  O   UNL     1       8.809   7.286  -4.801  1.00  0.00    -0.273 OA
ATOM     83  N   UNL     1       9.557   9.006  -3.498  1.00  0.00    -0.343 N 
ATOM     84  H   UNL     1       9.993   9.922  -3.515  1.00  0.00     0.164 HD
BRANCH  83  85
ATOM     85  C   UNL     1       9.814   8.155  -2.327  1.00  0.00     0.173 C 
BRANCH  85  86
ATOM     86  C   UNL     1      11.114   8.659  -1.667  1.00  0.00     0.240 C 
ATOM     87  N   UNL     1      11.346   8.174  -0.410  1.00  0.00    -0.368 N 
ATOM     88  O   UNL     1      11.943   9.371  -2.227  1.00  0.00    -0.273 OA
ATOM     89  H   UNL     1      10.868   7.328  -0.106  1.00  0.00     0.159 HD
ATOM     90  H   UNL     1      12.239   8.391   0.009  1.00  0.00     0.159 HD
ENDBRANCH  85  86
BRANCH  85  91
ATOM     91  C   UNL     1       8.629   8.187  -1.333  1.00  0.00     0.015 C 
ATOM     92  C   UNL     1       7.877   9.520  -1.408  1.00  0.00     0.010 C 
ATOM     93  C   UNL     1       7.635   7.050  -1.610  1.00  0.00     0.010 C 
ENDBRANCH  85  91
ENDBRANCH  83  85
ENDBRANCH  80  81
ENDBRANCH  78  80
ENDBRANCH  66  76
ENDBRANCH  64  66
ENDBRANCH  55  62
ENDBRANCH  53  55
ENDBRANCH   1  51
TORSDOF 39
ENDMDL
MODEL 5
REMARK VINA RESULT:    -8.288      3.121     10.605
REMARK INTER + INTRA:         -34.411
REMARK INTER:                 -24.659
REMARK INTRA:                  -9.752
REMARK UNBOUND:                -7.953
REMARK SMILES C=C(N[C@H](CCCCNC(=O)C[C@@H](Sc1ccc2ccccc2c1)C(=O)O)C(=O)N[C@H](CCC(=O)O)C(=O)N[C@H](Cc1ccc(O)cc1)C(=O)NCC(=O)N[C@@H](C(N)=O)C(C)C)[C@@H](CCC)NC(=O)[C@@H](NC(=O)CNC)C(C)C
REMARK SMILES IDX 4 1 3 2 2 4 1 5 63 6 64 7 65 8 66 9 67 10 68 11 69 13 70 14
REMARK SMILES IDX 71 15 72 16 73 18 74 19 75 20 76 21 77 23 78 24 79 25 5 26
REMARK SMILES IDX 6 27 7 28 8 29 9 30 10 31 11 33 12 34 13 35 14 36 15 37
REMARK SMILES IDX 16 38 24 39 17 40 23 41 18 42 22 43 19 44 21 45 20 46 25 47
REMARK SMILES IDX 26 48 27 49 28 51 29 52 30 53 31 55 32 56 33 57 34 58 35 59
REMARK SMILES IDX 36 60 37 62 38 63 39 64 40 66 41 67 42 68 43 69 48 70 44 71
REMARK SMILES IDX 47 72 45 73 46 74 49 76 50 77 51 78 52 80 53 81 54 82 55 83
REMARK SMILES IDX 56 85 57 86 58 87 59 88 60 91 61 92 62 93
REMARK H PARENT 3 3 67 12 71 17 75 22 9 32 27 50 30 54 36 61 39 65 46 75 51 79
REMARK H PARENT 55 84 58 89 58 90
REMARK Flexibility Score: inf
ROOT
ATOM      1  C   UNL     1      14.086  14.659  -4.305  1.00  0.00     0.168 C 
ENDROOT
BRANCH   1   2
ATOM      2  N   UNL     1      14.391  15.249  -2.965  1.00  0.00    -0.376 N 
ATOM      3  H   UNL     1      15.386  15.085  -2.729  1.00  0.00     0.161 HD
BRANCH   2   4
ATOM      4  C   UNL     1      13.985  16.425  -2.320  1.00  0.00     0.027 C 
ATOM      5  C   UNL     1      14.812  17.466  -2.117  1.00  0.00     0.034 C 
BRANCH   4   6
ATOM      6  C   UNL     1      12.478  16.620  -1.928  1.00  0.00     0.128 C 
BRANCH   6   7
ATOM      7  C   UNL     1      12.284  17.763  -0.885  1.00  0.00     0.031 C 
BRANCH   7   8
ATOM      8  C   UNL     1      11.852  17.268   0.509  1.00  0.00    -0.001 C 
ATOM      9  C   UNL     1      12.796  17.707   1.624  1.00  0.00     0.004 C 
ENDBRANCH   7   8
ENDBRANCH   6   7
BRANCH   6  10
ATOM     10  N   UNL     1      11.467  16.637  -3.001  1.00  0.00    -0.346 N 
ATOM     11  C   UNL     1      10.224  16.077  -3.142  1.00  0.00     0.243 C 
ATOM     12  H   UNL     1      11.710  17.264  -3.767  1.00  0.00     0.164 HD
ATOM     13  O   UNL     1       9.640  15.459  -2.245  1.00  0.00    -0.273 OA
BRANCH  11  14
ATOM     14  C   UNL     1       9.530  16.312  -4.533  1.00  0.00     0.173 C 
BRANCH  14  15
ATOM     15  N   UNL     1       8.127  15.872  -4.501  1.00  0.00    -0.343 N 
ATOM     16  C   UNL     1       7.540  15.075  -5.450  1.00  0.00     0.234 C 
ATOM     17  H   UNL     1       7.496  16.275  -3.809  1.00  0.00     0.164 HD
ATOM     18  O   UNL     1       8.148  14.713  -6.467  1.00  0.00    -0.274 OA
BRANCH  16  19
ATOM     19  C   UNL     1       6.122  14.592  -5.137  1.00  0.00     0.181 C 
BRANCH  19  20
ATOM     20  N   UNL     1       5.698  15.018  -3.790  1.00  0.00    -0.311 NA
ATOM     21  C   UNL     1       5.705  13.865  -2.883  1.00  0.00     0.101 C 
ATOM     22  H   UNL     1       4.740  15.367  -3.847  1.00  0.00     0.122 HD
ENDBRANCH  19  20
ENDBRANCH  16  19
ENDBRANCH  14  15
BRANCH  14  23
ATOM     23  C   UNL     1       9.729  17.742  -5.125  1.00  0.00     0.015 C 
ATOM     24  C   UNL     1       9.865  17.706  -6.653  1.00  0.00     0.010 C 
ATOM     25  C   UNL     1       8.574  18.701  -4.784  1.00  0.00     0.010 C 
ENDBRANCH  14  23
ENDBRANCH  11  14
ENDBRANCH   6  10
ENDBRANCH   4   6
ENDBRANCH   2   4
ENDBRANCH   1   2
BRANCH   1  26
ATOM     26  C   UNL     1      15.019  13.532  -4.797  1.00  0.00     0.035 C 
BRANCH  26  27
ATOM     27  C   UNL     1      15.004  12.199  -4.038  1.00  0.00     0.004 C 
BRANCH  27  28
ATOM     28  C   UNL     1      14.584  10.987  -4.875  1.00  0.00     0.021 C 
BRANCH  28  29
ATOM     29  C   UNL     1      13.403  11.342  -5.779  1.00  0.00     0.116 C 
BRANCH  29  30
ATOM     30  N   UNL     1      12.195  11.611  -5.029  1.00  0.00    -0.356 N 
ATOM     31  C   UNL     1      11.254  12.503  -5.502  1.00  0.00     0.221 C 
ATOM     32  H   UNL     1      12.038  11.134  -4.149  1.00  0.00     0.163 HD
ATOM     33  O   UNL     1      11.403  13.161  -6.525  1.00  0.00    -0.275 OA
BRANCH  31  34
ATOM     34  C   UNL     1      10.035  12.626  -4.619  1.00  0.00     0.126 C 
BRANCH  34  35
ATOM     35  C   UNL     1       9.237  11.325  -4.547  1.00  0.00     0.170 C 
BRANCH  35  36
ATOM     36  S   UNL     1       8.337  11.047  -2.946  1.00  0.00    -0.110 SA
BRANCH  36  37
ATOM     37  C   UNL     1       9.314   9.788  -2.144  1.00  0.00     0.009 A 
ATOM     38  C   UNL     1       8.688   8.758  -1.438  1.00  0.00     0.016 A 
ATOM     39  C   UNL     1      10.695   9.734  -2.349  1.00  0.00     0.023 A 
ATOM     40  C   UNL     1       9.431   7.680  -0.949  1.00  0.00     0.010 A 
ATOM     41  C   UNL     1      11.455   8.655  -1.869  1.00  0.00    -0.017 A 
ATOM     42  C   UNL     1      10.809   7.603  -1.176  1.00  0.00    -0.018 A 
ATOM     43  C   UNL     1      12.840   8.577  -2.087  1.00  0.00     0.009 A 
ATOM     44  C   UNL     1      11.558   6.493  -0.756  1.00  0.00     0.009 A 
ATOM     45  C   UNL     1      13.568   7.465  -1.660  1.00  0.00     0.001 A 
ATOM     46  C   UNL     1      12.924   6.419  -1.007  1.00  0.00     0.001 A 
ENDBRANCH  36  37
ENDBRANCH  35  36
BRANCH  35  47
ATOM     47  C   UNL     1       8.288  11.208  -5.734  1.00  0.00     0.317 C 
ATOM     48  O   UNL     1       7.236  10.584  -5.715  1.00  0.00    -0.251 OA
BRANCH  47  49
ATOM     49  O   UNL     1       8.658  11.932  -6.819  1.00  0.00    -0.480 OA
ATOM     50  H   UNL     1       9.397  12.539  -6.599  1.00  0.00     0.296 HD
ENDBRANCH  47  49
ENDBRANCH  35  47
ENDBRANCH  34  35
ENDBRANCH  31  34
ENDBRANCH  29  30
ENDBRANCH  28  29
ENDBRANCH  27  28
ENDBRANCH  26  27
ENDBRANCH   1  26
BRANCH   1  51
ATOM     51  C   UNL     1      13.889  15.700  -5.461  1.00  0.00     0.243 C 
ATOM     52  O   UNL     1      12.764  15.998  -5.865  1.00  0.00    -0.273 OA
ATOM     53  N   UNL     1      15.017  16.189  -6.059  1.00  0.00    -0.343 N 
ATOM     54  H   UNL     1      15.841  15.998  -5.498  1.00  0.00     0.164 HD
BRANCH  53  55
ATOM     55  C   UNL     1      15.155  17.285  -7.031  1.00  0.00     0.172 C 
BRANCH  55  56
ATOM     56  C   UNL     1      16.538  17.371  -7.696  1.00  0.00     0.047 C 
BRANCH  56  57
ATOM     57  C   UNL     1      16.546  16.952  -9.156  1.00  0.00     0.125 C 
BRANCH  57  58
ATOM     58  C   UNL     1      16.361  18.145 -10.055  1.00  0.00     0.303 C 
ATOM     59  O   UNL     1      15.910  18.090 -11.177  1.00  0.00    -0.252 OA
BRANCH  58  60
ATOM     60  O   UNL     1      16.754  19.320  -9.508  1.00  0.00    -0.481 OA
ATOM     61  H   UNL     1      17.672  19.284  -9.190  1.00  0.00     0.296 HD
ENDBRANCH  58  60
ENDBRANCH  57  58
ENDBRANCH  56  57
ENDBRANCH  55  56
BRANCH  55  62
ATOM     62  C   UNL     1      14.740  18.744  -6.699  1.00  0.00     0.243 C 
ATOM     63  O   UNL     1      15.591  19.631  -6.594  1.00  0.00    -0.273 OA
ATOM     64  N   UNL     1      13.444  18.970  -6.342  1.00  0.00    -0.342 N 
ATOM     65  H   UNL     1      12.813  18.169  -6.328  1.00  0.00     0.164 HD
BRANCH  64  66
ATOM     66  C   UNL     1      12.985  20.200  -5.675  1.00  0.00     0.175 C 
BRANCH  66  67
ATOM     67  C   UNL     1      12.507  19.905  -4.235  1.00  0.00     0.070 C 
BRANCH  67  68
ATOM     68  C   UNL     1      13.126  20.748  -3.132  1.00  0.00    -0.045 A 
ATOM     69  C   UNL     1      14.426  21.267  -3.241  1.00  0.00     0.007 A 
ATOM     70  C   UNL     1      12.364  21.094  -2.002  1.00  0.00     0.007 A 
ATOM     71  C   UNL     1      14.947  22.110  -2.250  1.00  0.00     0.046 A 
ATOM     72  C   UNL     1      12.884  21.933  -1.013  1.00  0.00     0.046 A 
ATOM     73  C   UNL     1      14.169  22.440  -1.146  1.00  0.00     0.115 A 
BRANCH  73  74
ATOM     74  O   UNL     1      14.627  23.273  -0.169  1.00  0.00    -0.508 OA
ATOM     75  H   UNL     1      15.360  23.800  -0.525  1.00  0.00     0.293 HD
ENDBRANCH  73  74
ENDBRANCH  67  68
ENDBRANCH  66  67
BRANCH  66  76
ATOM     76  C   UNL     1      11.849  20.894  -6.489  1.00  0.00     0.243 C 
ATOM     77  O   UNL     1      11.218  21.863  -6.068  1.00  0.00    -0.273 OA
ATOM     78  N   UNL     1      11.697  20.448  -7.784  1.00  0.00    -0.345 N 
ATOM     79  H   UNL     1      12.411  19.825  -8.163  1.00  0.00     0.164 HD
BRANCH  78  80
ATOM     80  C   UNL     1      10.748  21.019  -8.720  1.00  0.00     0.216 C 
BRANCH  80  81
ATOM     81  C   UNL     1      10.272  19.962  -9.732  1.00  0.00     0.240 C 
ATOM     82  O   UNL     1       9.086  19.672  -9.897  1.00  0.00    -0.273 OA
ATOM     83  N   UNL     1      11.279  19.359 -10.455  1.00  0.00    -0.343 N 
ATOM     84  H   UNL     1      12.190  19.804 -10.493  1.00  0.00     0.164 HD
BRANCH  83  85
ATOM     85  C   UNL     1      10.993  18.316 -11.450  1.00  0.00     0.173 C 
BRANCH  85  86
ATOM     86  C   UNL     1      10.790  19.018 -12.809  1.00  0.00     0.240 C 
ATOM     87  N   UNL     1       9.488  19.286 -13.129  1.00  0.00    -0.368 N 
ATOM     88  O   UNL     1      11.705  19.399 -13.533  1.00  0.00    -0.273 OA
ATOM     89  H   UNL     1       8.787  19.305 -12.390  1.00  0.00     0.159 HD
ATOM     90  H   UNL     1       9.323  19.844 -13.955  1.00  0.00     0.159 HD
ENDBRANCH  85  86
BRANCH  85  91
ATOM     91  C   UNL     1      12.131  17.272 -11.521  1.00  0.00     0.015 C 
ATOM     92  C   UNL     1      12.745  17.025 -10.138  1.00  0.00     0.010 C 
ATOM     93  C   UNL     1      11.629  15.932 -12.078  1.00  0.00     0.010 C 
ENDBRANCH  85  91
ENDBRANCH  83  85
ENDBRANCH  80  81
ENDBRANCH  78  80
ENDBRANCH  66  76
ENDBRANCH  64  66
ENDBRANCH  55  62
ENDBRANCH  53  55
ENDBRANCH   1  51
TORSDOF 39
ENDMDL
MODEL 6
REMARK VINA RESULT:    -8.276      2.291      5.247
REMARK INTER + INTRA:         -34.370
REMARK INTER:                 -25.102
REMARK INTRA:                  -9.268
REMARK UNBOUND:                -7.953
REMARK SMILES C=C(N[C@H](CCCCNC(=O)C[C@@H](Sc1ccc2ccccc2c1)C(=O)O)C(=O)N[C@H](CCC(=O)O)C(=O)N[C@H](Cc1ccc(O)cc1)C(=O)NCC(=O)N[C@@H](C(N)=O)C(C)C)[C@@H](CCC)NC(=O)[C@@H](NC(=O)CNC)C(C)C
REMARK SMILES IDX 4 1 3 2 2 4 1 5 63 6 64 7 65 8 66 9 67 10 68 11 69 13 70 14
REMARK SMILES IDX 71 15 72 16 73 18 74 19 75 20 76 21 77 23 78 24 79 25 5 26
REMARK SMILES IDX 6 27 7 28 8 29 9 30 10 31 11 33 12 34 13 35 14 36 15 37
REMARK SMILES IDX 16 38 24 39 17 40 23 41 18 42 22 43 19 44 21 45 20 46 25 47
REMARK SMILES IDX 26 48 27 49 28 51 29 52 30 53 31 55 32 56 33 57 34 58 35 59
REMARK SMILES IDX 36 60 37 62 38 63 39 64 40 66 41 67 42 68 43 69 48 70 44 71
REMARK SMILES IDX 47 72 45 73 46 74 49 76 50 77 51 78 52 80 53 81 54 82 55 83
REMARK SMILES IDX 56 85 57 86 58 87 59 88 60 91 61 92 62 93
REMARK H PARENT 3 3 67 12 71 17 75 22 9 32 27 50 30 54 36 61 39 65 46 75 51 79
REMARK H PARENT 55 84 58 89 58 90
REMARK Flexibility Score: inf
ROOT
ATOM      1  C   UNL     1      14.704  15.417  -3.110  1.00  0.00     0.168 C 
ENDROOT
BRANCH   1   2
ATOM      2  N   UNL     1      14.753  16.163  -1.815  1.00  0.00    -0.376 N 
ATOM      3  H   UNL     1      15.639  15.950  -1.323  1.00  0.00     0.161 HD
BRANCH   2   4
ATOM      4  C   UNL     1      14.349  17.448  -1.432  1.00  0.00     0.027 C 
ATOM      5  C   UNL     1      14.998  18.169  -0.500  1.00  0.00     0.034 C 
BRANCH   4   6
ATOM      6  C   UNL     1      13.176  18.158  -2.198  1.00  0.00     0.128 C 
BRANCH   6   7
ATOM      7  C   UNL     1      11.871  18.221  -1.348  1.00  0.00     0.031 C 
BRANCH   7   8
ATOM      8  C   UNL     1      10.595  17.871  -2.140  1.00  0.00    -0.001 C 
ATOM      9  C   UNL     1      10.068  16.470  -1.847  1.00  0.00     0.004 C 
ENDBRANCH   7   8
ENDBRANCH   6   7
BRANCH   6  10
ATOM     10  N   UNL     1      13.461  19.414  -2.915  1.00  0.00    -0.346 N 
ATOM     11  C   UNL     1      13.075  20.717  -2.737  1.00  0.00     0.243 C 
ATOM     12  H   UNL     1      14.158  19.304  -3.651  1.00  0.00     0.164 HD
ATOM     13  O   UNL     1      12.408  21.113  -1.774  1.00  0.00    -0.273 OA
BRANCH  11  14
ATOM     14  C   UNL     1      13.582  21.729  -3.827  1.00  0.00     0.173 C 
BRANCH  14  15
ATOM     15  N   UNL     1      12.648  21.790  -4.962  1.00  0.00    -0.343 N 
ATOM     16  C   UNL     1      12.647  20.915  -6.018  1.00  0.00     0.234 C 
ATOM     17  H   UNL     1      12.034  22.599  -5.056  1.00  0.00     0.164 HD
ATOM     18  O   UNL     1      13.503  20.026  -6.130  1.00  0.00    -0.274 OA
BRANCH  16  19
ATOM     19  C   UNL     1      11.483  21.052  -7.001  1.00  0.00     0.181 C 
BRANCH  19  20
ATOM     20  N   UNL     1      10.223  21.358  -6.299  1.00  0.00    -0.311 NA
ATOM     21  C   UNL     1       9.361  22.170  -7.163  1.00  0.00     0.101 C 
ATOM     22  H   UNL     1      10.442  21.909  -5.466  1.00  0.00     0.122 HD
ENDBRANCH  19  20
ENDBRANCH  16  19
ENDBRANCH  14  15
BRANCH  14  23
ATOM     23  C   UNL     1      13.993  23.128  -3.274  1.00  0.00     0.015 C 
ATOM     24  C   UNL     1      15.452  23.462  -3.613  1.00  0.00     0.010 C 
ATOM     25  C   UNL     1      13.116  24.272  -3.815  1.00  0.00     0.010 C 
ENDBRANCH  14  23
ENDBRANCH  11  14
ENDBRANCH   6  10
ENDBRANCH   4   6
ENDBRANCH   2   4
ENDBRANCH   1   2
BRANCH   1  26
ATOM     26  C   UNL     1      14.100  16.161  -4.319  1.00  0.00     0.035 C 
BRANCH  26  27
ATOM     27  C   UNL     1      14.616  15.804  -5.719  1.00  0.00     0.004 C 
BRANCH  27  28
ATOM     28  C   UNL     1      16.068  16.208  -5.992  1.00  0.00     0.021 C 
BRANCH  28  29
ATOM     29  C   UNL     1      16.154  17.692  -6.349  1.00  0.00     0.116 C 
BRANCH  29  30
ATOM     30  N   UNL     1      15.328  18.035  -7.486  1.00  0.00    -0.356 N 
ATOM     31  C   UNL     1      15.839  17.992  -8.768  1.00  0.00     0.221 C 
ATOM     32  H   UNL     1      14.363  18.304  -7.338  1.00  0.00     0.163 HD
ATOM     33  O   UNL     1      17.010  17.736  -9.019  1.00  0.00    -0.275 OA
BRANCH  31  34
ATOM     34  C   UNL     1      14.827  18.332  -9.837  1.00  0.00     0.126 C 
BRANCH  34  35
ATOM     35  C   UNL     1      14.052  17.106 -10.313  1.00  0.00     0.170 C 
BRANCH  35  36
ATOM     36  S   UNL     1      12.296  17.439 -10.823  1.00  0.00    -0.110 SA
BRANCH  36  37
ATOM     37  C   UNL     1      11.409  17.401  -9.276  1.00  0.00     0.009 A 
ATOM     38  C   UNL     1      12.053  16.989  -8.108  1.00  0.00     0.016 A 
ATOM     39  C   UNL     1      10.118  17.931  -9.195  1.00  0.00     0.023 A 
ATOM     40  C   UNL     1      11.420  17.112  -6.867  1.00  0.00     0.010 A 
ATOM     41  C   UNL     1       9.471  18.067  -7.956  1.00  0.00    -0.017 A 
ATOM     42  C   UNL     1      10.140  17.670  -6.773  1.00  0.00    -0.018 A 
ATOM     43  C   UNL     1       8.183  18.619  -7.856  1.00  0.00     0.009 A 
ATOM     44  C   UNL     1       9.520  17.869  -5.530  1.00  0.00     0.009 A 
ATOM     45  C   UNL     1       7.582  18.808  -6.610  1.00  0.00     0.001 A 
ATOM     46  C   UNL     1       8.256  18.444  -5.449  1.00  0.00     0.001 A 
ENDBRANCH  36  37
ENDBRANCH  35  36
BRANCH  35  47
ATOM     47  C   UNL     1      14.813  16.381 -11.417  1.00  0.00     0.317 C 
ATOM     48  O   UNL     1      14.619  16.552 -12.612  1.00  0.00    -0.251 OA
BRANCH  47  49
ATOM     49  O   UNL     1      15.805  15.571 -10.972  1.00  0.00    -0.480 OA
ATOM     50  H   UNL     1      16.412  15.328 -11.704  1.00  0.00     0.296 HD
ENDBRANCH  47  49
ENDBRANCH  35  47
ENDBRANCH  34  35
ENDBRANCH  31  34
ENDBRANCH  29  30
ENDBRANCH  28  29
ENDBRANCH  27  28
ENDBRANCH  26  27
ENDBRANCH   1  26
BRANCH   1  51
ATOM     51  C   UNL     1      14.077  13.982  -3.027  1.00  0.00     0.243 C 
ATOM     52  O   UNL     1      12.861  13.823  -2.906  1.00  0.00    -0.273 OA
ATOM     53  N   UNL     1      14.943  12.923  -3.000  1.00  0.00    -0.343 N 
ATOM     54  H   UNL     1      15.873  13.204  -3.296  1.00  0.00     0.164 HD
BRANCH  53  55
ATOM     55  C   UNL     1      14.657  11.484  -3.100  1.00  0.00     0.172 C 
BRANCH  55  56
ATOM     56  C   UNL     1      14.408  10.985  -4.532  1.00  0.00     0.047 C 
BRANCH  56  57
ATOM     57  C   UNL     1      14.014  12.082  -5.506  1.00  0.00     0.125 C 
BRANCH  57  58
ATOM     58  C   UNL     1      12.542  12.021  -5.813  1.00  0.00     0.303 C 
ATOM     59  O   UNL     1      12.042  12.415  -6.843  1.00  0.00    -0.252 OA
BRANCH  58  60
ATOM     60  O   UNL     1      11.790  11.485  -4.822  1.00  0.00    -0.481 OA
ATOM     61  H   UNL     1      10.847  11.701  -4.923  1.00  0.00     0.296 HD
ENDBRANCH  58  60
ENDBRANCH  57  58
ENDBRANCH  56  57
ENDBRANCH  55  56
BRANCH  55  62
ATOM     62  C   UNL     1      13.596  10.786  -2.205  1.00  0.00     0.243 C 
ATOM     63  O   UNL     1      13.404  11.166  -1.047  1.00  0.00    -0.273 OA
ATOM     64  N   UNL     1      13.032   9.635  -2.668  1.00  0.00    -0.342 N 
ATOM     65  H   UNL     1      13.326   9.303  -3.586  1.00  0.00     0.164 HD
BRANCH  64  66
ATOM     66  C   UNL     1      12.294   8.689  -1.816  1.00  0.00     0.175 C 
BRANCH  66  67
ATOM     67  C   UNL     1      12.601   7.227  -2.213  1.00  0.00     0.070 C 
BRANCH  67  68
ATOM     68  C   UNL     1      13.614   6.492  -1.350  1.00  0.00    -0.045 A 
ATOM     69  C   UNL     1      13.530   6.494   0.051  1.00  0.00     0.007 A 
ATOM     70  C   UNL     1      14.621   5.720  -1.955  1.00  0.00     0.007 A 
ATOM     71  C   UNL     1      14.425   5.742   0.825  1.00  0.00     0.046 A 
ATOM     72  C   UNL     1      15.515   4.971  -1.184  1.00  0.00     0.046 A 
ATOM     73  C   UNL     1      15.408   4.983   0.199  1.00  0.00     0.115 A 
BRANCH  73  74
ATOM     74  O   UNL     1      16.286   4.221   0.910  1.00  0.00    -0.508 OA
ATOM     75  H   UNL     1      16.167   3.291   0.660  1.00  0.00     0.293 HD
ENDBRANCH  73  74
ENDBRANCH  67  68
ENDBRANCH  66  67
BRANCH  66  76
ATOM     76  C   UNL     1      10.757   8.953  -1.877  1.00  0.00     0.243 C 
ATOM     77  O   UNL     1      10.028   8.910  -0.888  1.00  0.00    -0.273 OA
ATOM     78  N   UNL     1      10.285   9.392  -3.096  1.00  0.00    -0.345 N 
ATOM     79  H   UNL     1      10.967   9.654  -3.807  1.00  0.00     0.164 HD
BRANCH  78  80
ATOM     80  C   UNL     1       8.903   9.761  -3.331  1.00  0.00     0.216 C 
BRANCH  80  81
ATOM     81  C   UNL     1       8.688  11.265  -3.083  1.00  0.00     0.240 C 
ATOM     82  O   UNL     1       8.495  11.743  -1.965  1.00  0.00    -0.273 OA
ATOM     83  N   UNL     1       8.734  12.050  -4.216  1.00  0.00    -0.343 N 
ATOM     84  H   UNL     1       9.158  11.674  -5.056  1.00  0.00     0.164 HD
BRANCH  83  85
ATOM     85  C   UNL     1       8.531  13.505  -4.151  1.00  0.00     0.173 C 
BRANCH  85  86
ATOM     86  C   UNL     1       9.478  14.149  -5.184  1.00  0.00     0.240 C 
ATOM     87  N   UNL     1      10.714  14.481  -4.703  1.00  0.00    -0.368 N 
ATOM     88  O   UNL     1       9.212  14.289  -6.374  1.00  0.00    -0.273 OA
ATOM     89  H   UNL     1      11.050  14.041  -3.847  1.00  0.00     0.159 HD
ATOM     90  H   UNL     1      11.399  14.799  -5.373  1.00  0.00     0.159 HD
ENDBRANCH  85  86
BRANCH  85  91
ATOM     91  C   UNL     1       7.057  13.883  -4.428  1.00  0.00     0.015 C 
ATOM     92  C   UNL     1       6.314  12.744  -5.135  1.00  0.00     0.010 C 
ATOM     93  C   UNL     1       6.312  14.218  -3.128  1.00  0.00     0.010 C 
ENDBRANCH  85  91
ENDBRANCH  83  85
ENDBRANCH  80  81
ENDBRANCH  78  80
ENDBRANCH  66  76
ENDBRANCH  64  66
ENDBRANCH  55  62
ENDBRANCH  53  55
ENDBRANCH   1  51
TORSDOF 39
ENDMDL
MODEL 7
REMARK VINA RESULT:    -8.259      2.553      9.820
REMARK INTER + INTRA:         -34.316
REMARK INTER:                 -27.206
REMARK INTRA:                  -7.109
REMARK UNBOUND:                -7.953
REMARK SMILES C=C(N[C@H](CCCCNC(=O)C[C@@H](Sc1ccc2ccccc2c1)C(=O)O)C(=O)N[C@H](CCC(=O)O)C(=O)N[C@H](Cc1ccc(O)cc1)C(=O)NCC(=O)N[C@@H](C(N)=O)C(C)C)[C@@H](CCC)NC(=O)[C@@H](NC(=O)CNC)C(C)C
REMARK SMILES IDX 4 1 3 2 2 4 1 5 63 6 64 7 65 8 66 9 67 10 68 11 69 13 70 14
REMARK SMILES IDX 71 15 72 16 73 18 74 19 75 20 76 21 77 23 78 24 79 25 5 26
REMARK SMILES IDX 6 27 7 28 8 29 9 30 10 31 11 33 12 34 13 35 14 36 15 37
REMARK SMILES IDX 16 38 24 39 17 40 23 41 18 42 22 43 19 44 21 45 20 46 25 47
REMARK SMILES IDX 26 48 27 49 28 51 29 52 30 53 31 55 32 56 33 57 34 58 35 59
REMARK SMILES IDX 36 60 37 62 38 63 39 64 40 66 41 67 42 68 43 69 48 70 44 71
REMARK SMILES IDX 47 72 45 73 46 74 49 76 50 77 51 78 52 80 53 81 54 82 55 83
REMARK SMILES IDX 56 85 57 86 58 87 59 88 60 91 61 92 62 93
REMARK H PARENT 3 3 67 12 71 17 75 22 9 32 27 50 30 54 36 61 39 65 46 75 51 79
REMARK H PARENT 55 84 58 89 58 90
REMARK Flexibility Score: inf
ROOT
ATOM      1  C   UNL     1      11.494  12.515  -5.736  1.00  0.00     0.168 C 
ENDROOT
BRANCH   1   2
ATOM      2  N   UNL     1      10.258  11.689  -5.566  1.00  0.00    -0.376 N 
ATOM      3  H   UNL     1      10.507  10.684  -5.569  1.00  0.00     0.161 HD
BRANCH   2   4
ATOM      4  C   UNL     1       9.101  11.842  -4.791  1.00  0.00     0.027 C 
ATOM      5  C   UNL     1       7.917  12.206  -5.314  1.00  0.00     0.034 C 
BRANCH   4   6
ATOM      6  C   UNL     1       9.122  11.448  -3.271  1.00  0.00     0.128 C 
BRANCH   6   7
ATOM      7  C   UNL     1       7.935  12.081  -2.483  1.00  0.00     0.031 C 
BRANCH   7   8
ATOM      8  C   UNL     1       7.208  11.091  -1.551  1.00  0.00    -0.001 C 
ATOM      9  C   UNL     1       5.792  10.758  -2.011  1.00  0.00     0.004 C 
ENDBRANCH   7   8
ENDBRANCH   6   7
BRANCH   6  10
ATOM     10  N   UNL     1       9.371  10.041  -2.911  1.00  0.00    -0.346 N 
ATOM     11  C   UNL     1       9.440   8.875  -3.629  1.00  0.00     0.243 C 
ATOM     12  H   UNL     1       9.626   9.919  -1.931  1.00  0.00     0.164 HD
ATOM     13  O   UNL     1       9.380   8.821  -4.863  1.00  0.00    -0.273 OA
BRANCH  11  14
ATOM     14  C   UNL     1       9.657   7.570  -2.782  1.00  0.00     0.173 C 
BRANCH  14  15
ATOM     15  N   UNL     1      10.827   7.703  -1.901  1.00  0.00    -0.343 N 
ATOM     16  C   UNL     1      11.854   6.797  -1.828  1.00  0.00     0.234 C 
ATOM     17  H   UNL     1      10.838   8.442  -1.199  1.00  0.00     0.164 HD
ATOM     18  O   UNL     1      11.836   5.736  -2.467  1.00  0.00    -0.274 OA
BRANCH  16  19
ATOM     19  C   UNL     1      13.056   7.213  -0.977  1.00  0.00     0.181 C 
BRANCH  19  20
ATOM     20  N   UNL     1      13.179   6.365   0.224  1.00  0.00    -0.311 NA
ATOM     21  C   UNL     1      14.595   6.102   0.498  1.00  0.00     0.101 C 
ATOM     22  H   UNL     1      12.724   5.471   0.036  1.00  0.00     0.122 HD
ENDBRANCH  19  20
ENDBRANCH  16  19
ENDBRANCH  14  15
BRANCH  14  23
ATOM     23  C   UNL     1       8.379   7.046  -2.056  1.00  0.00     0.015 C 
ATOM     24  C   UNL     1       8.252   7.631  -0.644  1.00  0.00     0.010 C 
ATOM     25  C   UNL     1       7.079   7.374  -2.813  1.00  0.00     0.010 C 
ENDBRANCH  14  23
ENDBRANCH  11  14
ENDBRANCH   6  10
ENDBRANCH   4   6
ENDBRANCH   2   4
ENDBRANCH   1   2
BRANCH   1  26
ATOM     26  C   UNL     1      12.815  11.903  -5.225  1.00  0.00     0.035 C 
BRANCH  26  27
ATOM     27  C   UNL     1      13.134  12.020  -3.729  1.00  0.00     0.004 C 
BRANCH  27  28
ATOM     28  C   UNL     1      14.554  12.497  -3.409  1.00  0.00     0.021 C 
BRANCH  28  29
ATOM     29  C   UNL     1      14.605  14.025  -3.348  1.00  0.00     0.116 C 
BRANCH  29  30
ATOM     30  N   UNL     1      13.494  14.584  -2.607  1.00  0.00    -0.356 N 
ATOM     31  C   UNL     1      13.494  15.913  -2.233  1.00  0.00     0.221 C 
ATOM     32  H   UNL     1      12.707  13.994  -2.368  1.00  0.00     0.163 HD
ATOM     33  O   UNL     1      14.435  16.671  -2.434  1.00  0.00    -0.275 OA
BRANCH  31  34
ATOM     34  C   UNL     1      12.237  16.341  -1.512  1.00  0.00     0.126 C 
BRANCH  34  35
ATOM     35  C   UNL     1      12.448  17.603  -0.678  1.00  0.00     0.170 C 
BRANCH  35  36
ATOM     36  S   UNL     1      11.609  19.124  -1.336  1.00  0.00    -0.110 SA
BRANCH  36  37
ATOM     37  C   UNL     1      12.876  20.374  -1.211  1.00  0.00     0.009 A 
ATOM     38  C   UNL     1      14.224  20.015  -1.272  1.00  0.00     0.016 A 
ATOM     39  C   UNL     1      12.528  21.728  -1.211  1.00  0.00     0.023 A 
ATOM     40  C   UNL     1      15.217  20.997  -1.341  1.00  0.00     0.010 A 
ATOM     41  C   UNL     1      13.513  22.726  -1.287  1.00  0.00    -0.017 A 
ATOM     42  C   UNL     1      14.876  22.354  -1.373  1.00  0.00    -0.018 A 
ATOM     43  C   UNL     1      13.178  24.090  -1.311  1.00  0.00     0.009 A 
ATOM     44  C   UNL     1      15.855  23.349  -1.516  1.00  0.00     0.009 A 
ATOM     45  C   UNL     1      14.166  25.065  -1.453  1.00  0.00     0.001 A 
ATOM     46  C   UNL     1      15.502  24.693  -1.568  1.00  0.00     0.001 A 
ENDBRANCH  36  37
ENDBRANCH  35  36
BRANCH  35  47
ATOM     47  C   UNL     1      12.069  17.358   0.778  1.00  0.00     0.317 C 
ATOM     48  O   UNL     1      11.611  16.306   1.202  1.00  0.00    -0.251 OA
BRANCH  47  49
ATOM     49  O   UNL     1      12.360  18.387   1.612  1.00  0.00    -0.480 OA
ATOM     50  H   UNL     1      11.634  19.047   1.617  1.00  0.00     0.296 HD
ENDBRANCH  47  49
ENDBRANCH  35  47
ENDBRANCH  34  35
ENDBRANCH  31  34
ENDBRANCH  29  30
ENDBRANCH  28  29
ENDBRANCH  27  28
ENDBRANCH  26  27
ENDBRANCH   1  26
BRANCH   1  51
ATOM     51  C   UNL     1      11.381  13.992  -5.222  1.00  0.00     0.243 C 
ATOM     52  O   UNL     1      10.933  14.246  -4.104  1.00  0.00    -0.273 OA
ATOM     53  N   UNL     1      11.713  14.985  -6.102  1.00  0.00    -0.343 N 
ATOM     54  H   UNL     1      12.233  14.615  -6.893  1.00  0.00     0.164 HD
BRANCH  53  55
ATOM     55  C   UNL     1      11.873  16.428  -5.861  1.00  0.00     0.172 C 
BRANCH  55  56
ATOM     56  C   UNL     1      10.680  17.282  -6.318  1.00  0.00     0.047 C 
BRANCH  56  57
ATOM     57  C   UNL     1       9.906  16.687  -7.481  1.00  0.00     0.125 C 
BRANCH  57  58
ATOM     58  C   UNL     1       9.858  17.648  -8.639  1.00  0.00     0.303 C 
ATOM     59  O   UNL     1       8.870  17.864  -9.305  1.00  0.00    -0.252 OA
BRANCH  58  60
ATOM     60  O   UNL     1      11.034  18.267  -8.896  1.00  0.00    -0.481 OA
ATOM     61  H   UNL     1      11.794  17.748  -8.585  1.00  0.00     0.296 HD
ENDBRANCH  58  60
ENDBRANCH  57  58
ENDBRANCH  56  57
ENDBRANCH  55  56
BRANCH  55  62
ATOM     62  C   UNL     1      13.151  17.202  -6.283  1.00  0.00     0.243 C 
ATOM     63  O   UNL     1      13.523  17.207  -7.460  1.00  0.00    -0.273 OA
ATOM     64  N   UNL     1      13.944  17.706  -5.296  1.00  0.00    -0.342 N 
ATOM     65  H   UNL     1      13.645  17.561  -4.332  1.00  0.00     0.164 HD
BRANCH  64  66
ATOM     66  C   UNL     1      15.332  18.146  -5.511  1.00  0.00     0.175 C 
BRANCH  66  67
ATOM     67  C   UNL     1      15.382  19.626  -5.957  1.00  0.00     0.070 C 
BRANCH  67  68
ATOM     68  C   UNL     1      14.062  20.380  -5.944  1.00  0.00    -0.045 A 
ATOM     69  C   UNL     1      13.653  21.132  -4.832  1.00  0.00     0.007 A 
ATOM     70  C   UNL     1      13.256  20.401  -7.095  1.00  0.00     0.007 A 
ATOM     71  C   UNL     1      12.471  21.886  -4.871  1.00  0.00     0.046 A 
ATOM     72  C   UNL     1      12.077  21.151  -7.134  1.00  0.00     0.046 A 
ATOM     73  C   UNL     1      11.696  21.892  -6.025  1.00  0.00     0.115 A 
BRANCH  73  74
ATOM     74  O   UNL     1      10.552  22.627  -6.115  1.00  0.00    -0.508 OA
ATOM     75  H   UNL     1      10.787  23.559  -6.253  1.00  0.00     0.293 HD
ENDBRANCH  73  74
ENDBRANCH  67  68
ENDBRANCH  66  67
BRANCH  66  76
ATOM     76  C   UNL     1      16.057  17.243  -6.557  1.00  0.00     0.243 C 
ATOM     77  O   UNL     1      16.330  16.062  -6.349  1.00  0.00    -0.273 OA
ATOM     78  N   UNL     1      16.238  17.813  -7.799  1.00  0.00    -0.345 N 
ATOM     79  H   UNL     1      15.767  18.696  -7.994  1.00  0.00     0.164 HD
BRANCH  78  80
ATOM     80  C   UNL     1      16.823  17.108  -8.923  1.00  0.00     0.216 C 
BRANCH  80  81
ATOM     81  C   UNL     1      16.054  17.413 -10.221  1.00  0.00     0.240 C 
ATOM     82  O   UNL     1      16.251  18.420 -10.902  1.00  0.00    -0.273 OA
ATOM     83  N   UNL     1      15.120  16.462 -10.576  1.00  0.00    -0.343 N 
ATOM     84  H   UNL     1      15.176  15.539 -10.159  1.00  0.00     0.164 HD
BRANCH  83  85
ATOM     85  C   UNL     1      14.290  16.612 -11.780  1.00  0.00     0.173 C 
BRANCH  85  86
ATOM     86  C   UNL     1      14.763  15.557 -12.801  1.00  0.00     0.240 C 
ATOM     87  N   UNL     1      15.094  14.344 -12.264  1.00  0.00    -0.368 N 
ATOM     88  O   UNL     1      14.774  15.728 -14.017  1.00  0.00    -0.273 OA
ATOM     89  H   UNL     1      14.744  14.096 -11.340  1.00  0.00     0.159 HD
ATOM     90  H   UNL     1      15.299  13.596 -12.911  1.00  0.00     0.159 HD
ENDBRANCH  85  86
BRANCH  85  91
ATOM     91  C   UNL     1      12.787  16.446 -11.456  1.00  0.00     0.015 C 
ATOM     92  C   UNL     1      12.020  15.871 -12.653  1.00  0.00     0.010 C 
ATOM     93  C   UNL     1      12.573  15.519 -10.250  1.00  0.00     0.010 C 
ENDBRANCH  85  91
ENDBRANCH  83  85
ENDBRANCH  80  81
ENDBRANCH  78  80
ENDBRANCH  66  76
ENDBRANCH  64  66
ENDBRANCH  55  62
ENDBRANCH  53  55
ENDBRANCH   1  51
TORSDOF 39
ENDMDL
MODEL 8
REMARK VINA RESULT:    -8.184      2.987      8.005
REMARK INTER + INTRA:         -34.079
REMARK INTER:                 -25.732
REMARK INTRA:                  -8.347
REMARK UNBOUND:                -7.953
REMARK SMILES C=C(N[C@H](CCCCNC(=O)C[C@@H](Sc1ccc2ccccc2c1)C(=O)O)C(=O)N[C@H](CCC(=O)O)C(=O)N[C@H](Cc1ccc(O)cc1)C(=O)NCC(=O)N[C@@H](C(N)=O)C(C)C)[C@@H](CCC)NC(=O)[C@@H](NC(=O)CNC)C(C)C
REMARK SMILES IDX 4 1 3 2 2 4 1 5 63 6 64 7 65 8 66 9 67 10 68 11 69 13 70 14
REMARK SMILES IDX 71 15 72 16 73 18 74 19 75 20 76 21 77 23 78 24 79 25 5 26
REMARK SMILES IDX 6 27 7 28 8 29 9 30 10 31 11 33 12 34 13 35 14 36 15 37
REMARK SMILES IDX 16 38 24 39 17 40 23 41 18 42 22 43 19 44 21 45 20 46 25 47
REMARK SMILES IDX 26 48 27 49 28 51 29 52 30 53 31 55 32 56 33 57 34 58 35 59
REMARK SMILES IDX 36 60 37 62 38 63 39 64 40 66 41 67 42 68 43 69 48 70 44 71
REMARK SMILES IDX 47 72 45 73 46 74 49 76 50 77 51 78 52 80 53 81 54 82 55 83
REMARK SMILES IDX 56 85 57 86 58 87 59 88 60 91 61 92 62 93
REMARK H PARENT 3 3 67 12 71 17 75 22 9 32 27 50 30 54 36 61 39 65 46 75 51 79
REMARK H PARENT 55 84 58 89 58 90
REMARK Flexibility Score: inf
ROOT
ATOM      1  C   UNL     1       7.736  16.124  -6.818  1.00  0.00     0.168 C 
ENDROOT
BRANCH   1   2
ATOM      2  N   UNL     1       8.841  16.347  -7.802  1.00  0.00    -0.376 N 
ATOM      3  H   UNL     1       9.269  15.440  -8.057  1.00  0.00     0.161 HD
BRANCH   2   4
ATOM      4  C   UNL     1       8.996  17.216  -8.889  1.00  0.00     0.027 C 
ATOM      5  C   UNL     1       8.623  18.508  -8.849  1.00  0.00     0.034 C 
BRANCH   4   6
ATOM      6  C   UNL     1       9.754  16.730 -10.175  1.00  0.00     0.128 C 
BRANCH   6   7
ATOM      7  C   UNL     1       8.957  17.036 -11.480  1.00  0.00     0.031 C 
BRANCH   7   8
ATOM      8  C   UNL     1       9.703  17.962 -12.462  1.00  0.00    -0.001 C 
ATOM      9  C   UNL     1       9.243  19.415 -12.388  1.00  0.00     0.004 C 
ENDBRANCH   7   8
ENDBRANCH   6   7
BRANCH   6  10
ATOM     10  N   UNL     1      11.194  17.018 -10.295  1.00  0.00    -0.346 N 
ATOM     11  C   UNL     1      12.269  16.849  -9.461  1.00  0.00     0.243 C 
ATOM     12  H   UNL     1      11.461  17.338 -11.226  1.00  0.00     0.164 HD
ATOM     13  O   UNL     1      12.208  16.276  -8.367  1.00  0.00    -0.273 OA
BRANCH  11  14
ATOM     14  C   UNL     1      13.640  17.392 -10.004  1.00  0.00     0.173 C 
BRANCH  14  15
ATOM     15  N   UNL     1      13.842  17.000 -11.407  1.00  0.00    -0.343 N 
ATOM     16  C   UNL     1      14.697  16.013 -11.824  1.00  0.00     0.234 C 
ATOM     17  H   UNL     1      13.427  17.568 -12.145  1.00  0.00     0.164 HD
ATOM     18  O   UNL     1      15.434  15.408 -11.032  1.00  0.00    -0.274 OA
BRANCH  16  19
ATOM     19  C   UNL     1      14.626  15.647 -13.309  1.00  0.00     0.181 C 
BRANCH  19  20
ATOM     20  N   UNL     1      15.349  14.391 -13.585  1.00  0.00    -0.311 NA
ATOM     21  C   UNL     1      15.672  14.312 -15.012  1.00  0.00     0.101 C 
ATOM     22  H   UNL     1      14.734  13.608 -13.357  1.00  0.00     0.122 HD
ENDBRANCH  19  20
ENDBRANCH  16  19
ENDBRANCH  14  15
BRANCH  14  23
ATOM     23  C   UNL     1      13.893  18.907  -9.730  1.00  0.00     0.015 C 
ATOM     24  C   UNL     1      13.265  19.353  -8.403  1.00  0.00     0.010 C 
ATOM     25  C   UNL     1      15.388  19.269  -9.683  1.00  0.00     0.010 C 
ENDBRANCH  14  23
ENDBRANCH  11  14
ENDBRANCH   6  10
ENDBRANCH   4   6
ENDBRANCH   2   4
ENDBRANCH   1   2
BRANCH   1  26
ATOM     26  C   UNL     1       7.992  16.584  -5.368  1.00  0.00     0.035 C 
BRANCH  26  27
ATOM     27  C   UNL     1       8.279  18.071  -5.122  1.00  0.00     0.004 C 
BRANCH  27  28
ATOM     28  C   UNL     1       9.564  18.358  -4.339  1.00  0.00     0.021 C 
BRANCH  28  29
ATOM     29  C   UNL     1      10.291  17.054  -4.007  1.00  0.00     0.116 C 
BRANCH  29  30
ATOM     30  N   UNL     1      11.189  17.194  -2.880  1.00  0.00    -0.356 N 
ATOM     31  C   UNL     1      10.878  16.635  -1.657  1.00  0.00     0.221 C 
ATOM     32  H   UNL     1      12.057  17.703  -2.994  1.00  0.00     0.163 HD
ATOM     33  O   UNL     1       9.822  16.058  -1.427  1.00  0.00    -0.275 OA
BRANCH  31  34
ATOM     34  C   UNL     1      11.947  16.835  -0.608  1.00  0.00     0.126 C 
BRANCH  34  35
ATOM     35  C   UNL     1      12.695  18.154  -0.787  1.00  0.00     0.170 C 
BRANCH  35  36
ATOM     36  S   UNL     1      11.700  19.676  -0.406  1.00  0.00    -0.110 SA
BRANCH  36  37
ATOM     37  C   UNL     1      12.403  20.904  -1.492  1.00  0.00     0.009 A 
ATOM     38  C   UNL     1      12.426  20.690  -2.871  1.00  0.00     0.016 A 
ATOM     39  C   UNL     1      12.788  22.150  -0.986  1.00  0.00     0.023 A 
ATOM     40  C   UNL     1      12.821  21.711  -3.741  1.00  0.00     0.010 A 
ATOM     41  C   UNL     1      13.181  23.188  -1.847  1.00  0.00    -0.017 A 
ATOM     42  C   UNL     1      13.178  22.970  -3.246  1.00  0.00    -0.018 A 
ATOM     43  C   UNL     1      13.548  24.451  -1.355  1.00  0.00     0.009 A 
ATOM     44  C   UNL     1      13.506  24.028  -4.108  1.00  0.00     0.009 A 
ATOM     45  C   UNL     1      13.873  25.490  -2.229  1.00  0.00     0.001 A 
ATOM     46  C   UNL     1      13.839  25.281  -3.604  1.00  0.00     0.001 A 
ENDBRANCH  36  37
ENDBRANCH  35  36
BRANCH  35  47
ATOM     47  C   UNL     1      14.001  18.145  -0.001  1.00  0.00     0.317 C 
ATOM     48  O   UNL     1      15.078  18.507  -0.452  1.00  0.00    -0.251 OA
BRANCH  47  49
ATOM     49  O   UNL     1      13.869  17.774   1.297  1.00  0.00    -0.480 OA
ATOM     50  H   UNL     1      14.714  17.421   1.647  1.00  0.00     0.296 HD
ENDBRANCH  47  49
ENDBRANCH  35  47
ENDBRANCH  34  35
ENDBRANCH  31  34
ENDBRANCH  29  30
ENDBRANCH  28  29
ENDBRANCH  27  28
ENDBRANCH  26  27
ENDBRANCH   1  26
BRANCH   1  51
ATOM     51  C   UNL     1       7.148  14.670  -6.797  1.00  0.00     0.243 C 
ATOM     52  O   UNL     1       6.388  14.277  -7.683  1.00  0.00    -0.273 OA
ATOM     53  N   UNL     1       7.441  13.895  -5.709  1.00  0.00    -0.343 N 
ATOM     54  H   UNL     1       8.215  14.285  -5.179  1.00  0.00     0.164 HD
BRANCH  53  55
ATOM     55  C   UNL     1       7.186  12.463  -5.491  1.00  0.00     0.172 C 
BRANCH  55  56
ATOM     56  C   UNL     1       6.269  12.158  -4.296  1.00  0.00     0.047 C 
BRANCH  56  57
ATOM     57  C   UNL     1       6.356  13.181  -3.176  1.00  0.00     0.125 C 
BRANCH  57  58
ATOM     58  C   UNL     1       7.559  12.921  -2.309  1.00  0.00     0.303 C 
ATOM     59  O   UNL     1       7.587  12.116  -1.405  1.00  0.00    -0.252 OA
BRANCH  58  60
ATOM     60  O   UNL     1       8.638  13.682  -2.613  1.00  0.00    -0.481 OA
ATOM     61  H   UNL     1       8.386  14.587  -2.861  1.00  0.00     0.296 HD
ENDBRANCH  58  60
ENDBRANCH  57  58
ENDBRANCH  56  57
ENDBRANCH  55  56
BRANCH  55  62
ATOM     62  C   UNL     1       8.331  11.415  -5.440  1.00  0.00     0.243 C 
ATOM     63  O   UNL     1       8.084  10.210  -5.535  1.00  0.00    -0.273 OA
ATOM     64  N   UNL     1       9.576  11.850  -5.098  1.00  0.00    -0.342 N 
ATOM     65  H   UNL     1       9.692  12.846  -4.910  1.00  0.00     0.164 HD
BRANCH  64  66
ATOM     66  C   UNL     1      10.664  10.955  -4.673  1.00  0.00     0.175 C 
BRANCH  66  67
ATOM     67  C   UNL     1      10.637  10.736  -3.143  1.00  0.00     0.070 C 
BRANCH  67  68
ATOM     68  C   UNL     1      11.101   9.376  -2.647  1.00  0.00    -0.045 A 
ATOM     69  C   UNL     1      10.350   8.213  -2.874  1.00  0.00     0.007 A 
ATOM     70  C   UNL     1      12.350   9.249  -2.014  1.00  0.00     0.007 A 
ATOM     71  C   UNL     1      10.835   6.957  -2.481  1.00  0.00     0.046 A 
ATOM     72  C   UNL     1      12.833   7.998  -1.620  1.00  0.00     0.046 A 
ATOM     73  C   UNL     1      12.075   6.861  -1.862  1.00  0.00     0.115 A 
BRANCH  73  74
ATOM     74  O   UNL     1      12.596   5.659  -1.482  1.00  0.00    -0.508 OA
ATOM     75  H   UNL     1      13.272   5.811  -0.803  1.00  0.00     0.293 HD
ENDBRANCH  73  74
ENDBRANCH  67  68
ENDBRANCH  66  67
BRANCH  66  76
ATOM     76  C   UNL     1      12.056  11.507  -5.114  1.00  0.00     0.243 C 
ATOM     77  O   UNL     1      12.490  11.396  -6.260  1.00  0.00    -0.273 OA
ATOM     78  N   UNL     1      12.712  12.267  -4.170  1.00  0.00    -0.345 N 
ATOM     79  H   UNL     1      12.198  12.540  -3.333  1.00  0.00     0.164 HD
BRANCH  78  80
ATOM     80  C   UNL     1      13.979  12.928  -4.416  1.00  0.00     0.216 C 
BRANCH  80  81
ATOM     81  C   UNL     1      13.766  14.415  -4.750  1.00  0.00     0.240 C 
ATOM     82  O   UNL     1      12.653  14.928  -4.868  1.00  0.00    -0.273 OA
ATOM     83  N   UNL     1      14.927  15.145  -4.901  1.00  0.00    -0.343 N 
ATOM     84  H   UNL     1      15.794  14.770  -4.535  1.00  0.00     0.164 HD
BRANCH  83  85
ATOM     85  C   UNL     1      14.896  16.576  -5.238  1.00  0.00     0.173 C 
BRANCH  85  86
ATOM     86  C   UNL     1      14.795  17.359  -3.913  1.00  0.00     0.240 C 
ATOM     87  N   UNL     1      15.682  16.973  -2.947  1.00  0.00    -0.368 N 
ATOM     88  O   UNL     1      14.049  18.317  -3.731  1.00  0.00    -0.273 OA
ATOM     89  H   UNL     1      16.515  16.452  -3.216  1.00  0.00     0.159 HD
ATOM     90  H   UNL     1      15.723  17.535  -2.109  1.00  0.00     0.159 HD
ENDBRANCH  85  86
BRANCH  85  91
ATOM     91  C   UNL     1      16.147  16.995  -6.045  1.00  0.00     0.015 C 
ATOM     92  C   UNL     1      16.194  16.288  -7.405  1.00  0.00     0.010 C 
ATOM     93  C   UNL     1      16.177  18.511  -6.283  1.00  0.00     0.010 C 
ENDBRANCH  85  91
ENDBRANCH  83  85
ENDBRANCH  80  81
ENDBRANCH  78  80
ENDBRANCH  66  76
ENDBRANCH  64  66
ENDBRANCH  55  62
ENDBRANCH  53  55
ENDBRANCH   1  51
TORSDOF 39
ENDMDL
MODEL 9
REMARK VINA RESULT:    -8.173      2.615      7.050
REMARK INTER + INTRA:         -34.042
REMARK INTER:                 -21.971
REMARK INTRA:                 -12.071
REMARK UNBOUND:                -7.953
REMARK SMILES C=C(N[C@H](CCCCNC(=O)C[C@@H](Sc1ccc2ccccc2c1)C(=O)O)C(=O)N[C@H](CCC(=O)O)C(=O)N[C@H](Cc1ccc(O)cc1)C(=O)NCC(=O)N[C@@H](C(N)=O)C(C)C)[C@@H](CCC)NC(=O)[C@@H](NC(=O)CNC)C(C)C
REMARK SMILES IDX 4 1 3 2 2 4 1 5 63 6 64 7 65 8 66 9 67 10 68 11 69 13 70 14
REMARK SMILES IDX 71 15 72 16 73 18 74 19 75 20 76 21 77 23 78 24 79 25 5 26
REMARK SMILES IDX 6 27 7 28 8 29 9 30 10 31 11 33 12 34 13 35 14 36 15 37
REMARK SMILES IDX 16 38 24 39 17 40 23 41 18 42 22 43 19 44 21 45 20 46 25 47
REMARK SMILES IDX 26 48 27 49 28 51 29 52 30 53 31 55 32 56 33 57 34 58 35 59
REMARK SMILES IDX 36 60 37 62 38 63 39 64 40 66 41 67 42 68 43 69 48 70 44 71
REMARK SMILES IDX 47 72 45 73 46 74 49 76 50 77 51 78 52 80 53 81 54 82 55 83
REMARK SMILES IDX 56 85 57 86 58 87 59 88 60 91 61 92 62 93
REMARK H PARENT 3 3 67 12 71 17 75 22 9 32 27 50 30 54 36 61 39 65 46 75 51 79
REMARK H PARENT 55 84 58 89 58 90
REMARK Flexibility Score: inf
ROOT
ATOM      1  C   UNL     1      14.492  16.038  -3.461  1.00  0.00     0.168 C 
ENDROOT
BRANCH   1   2
ATOM      2  N   UNL     1      14.033  17.425  -3.143  1.00  0.00    -0.376 N 
ATOM      3  H   UNL     1      13.273  17.699  -3.791  1.00  0.00     0.161 HD
BRANCH   2   4
ATOM      4  C   UNL     1      13.842  18.121  -1.942  1.00  0.00     0.027 C 
ATOM      5  C   UNL     1      14.774  18.170  -0.973  1.00  0.00     0.034 C 
BRANCH   4   6
ATOM      6  C   UNL     1      12.556  18.999  -1.744  1.00  0.00     0.128 C 
BRANCH   6   7
ATOM      7  C   UNL     1      12.063  18.996  -0.265  1.00  0.00     0.031 C 
BRANCH   7   8
ATOM      8  C   UNL     1      11.345  17.697   0.150  1.00  0.00    -0.001 C 
ATOM      9  C   UNL     1      10.209  17.308  -0.792  1.00  0.00     0.004 C 
ENDBRANCH   7   8
ENDBRANCH   6   7
BRANCH   6  10
ATOM     10  N   UNL     1      12.513  20.334  -2.366  1.00  0.00    -0.346 N 
ATOM     11  C   UNL     1      13.212  20.931  -3.383  1.00  0.00     0.243 C 
ATOM     12  H   UNL     1      11.746  20.911  -2.020  1.00  0.00     0.164 HD
ATOM     13  O   UNL     1      14.038  20.342  -4.089  1.00  0.00    -0.273 OA
BRANCH  11  14
ATOM     14  C   UNL     1      12.862  22.439  -3.652  1.00  0.00     0.173 C 
BRANCH  14  15
ATOM     15  N   UNL     1      13.773  23.329  -2.917  1.00  0.00    -0.343 N 
ATOM     16  C   UNL     1      13.684  23.598  -1.575  1.00  0.00     0.234 C 
ATOM     17  H   UNL     1      14.444  23.893  -3.438  1.00  0.00     0.164 HD
ATOM     18  O   UNL     1      12.762  23.151  -0.879  1.00  0.00    -0.274 OA
BRANCH  16  19
ATOM     19  C   UNL     1      14.835  24.410  -0.976  1.00  0.00     0.181 C 
BRANCH  19  20
ATOM     20  N   UNL     1      14.329  25.539  -0.173  1.00  0.00    -0.311 NA
ATOM     21  C   UNL     1      14.168  26.720  -1.027  1.00  0.00     0.101 C 
ATOM     22  H   UNL     1      15.022  25.763   0.544  1.00  0.00     0.122 HD
ENDBRANCH  19  20
ENDBRANCH  16  19
ENDBRANCH  14  15
BRANCH  14  23
ATOM     23  C   UNL     1      12.700  22.810  -5.159  1.00  0.00     0.015 C 
ATOM     24  C   UNL     1      11.604  21.972  -5.831  1.00  0.00     0.010 C 
ATOM     25  C   UNL     1      12.353  24.293  -5.381  1.00  0.00     0.010 C 
ENDBRANCH  14  23
ENDBRANCH  11  14
ENDBRANCH   6  10
ENDBRANCH   4   6
ENDBRANCH   2   4
ENDBRANCH   1   2
BRANCH   1  26
ATOM     26  C   UNL     1      14.984  15.781  -4.901  1.00  0.00     0.035 C 
BRANCH  26  27
ATOM     27  C   UNL     1      15.649  16.940  -5.655  1.00  0.00     0.004 C 
BRANCH  27  28
ATOM     28  C   UNL     1      16.596  16.516  -6.782  1.00  0.00     0.021 C 
BRANCH  28  29
ATOM     29  C   UNL     1      15.814  16.262  -8.071  1.00  0.00     0.116 C 
BRANCH  29  30
ATOM     30  N   UNL     1      14.927  17.356  -8.403  1.00  0.00    -0.356 N 
ATOM     31  C   UNL     1      15.195  18.181  -9.478  1.00  0.00     0.221 C 
ATOM     32  H   UNL     1      14.098  17.514  -7.844  1.00  0.00     0.163 HD
ATOM     33  O   UNL     1      16.208  18.090 -10.161  1.00  0.00    -0.275 OA
BRANCH  31  34
ATOM     34  C   UNL     1      14.142  19.239  -9.710  1.00  0.00     0.126 C 
BRANCH  34  35
ATOM     35  C   UNL     1      12.740  18.645  -9.828  1.00  0.00     0.170 C 
BRANCH  35  36
ATOM     36  S   UNL     1      11.389  19.882 -10.138  1.00  0.00    -0.110 SA
BRANCH  36  37
ATOM     37  C   UNL     1      10.026  19.245  -9.182  1.00  0.00     0.009 A 
ATOM     38  C   UNL     1       9.478  17.997  -9.487  1.00  0.00     0.016 A 
ATOM     39  C   UNL     1       9.603  19.914  -8.029  1.00  0.00     0.023 A 
ATOM     40  C   UNL     1       8.523  17.416  -8.646  1.00  0.00     0.010 A 
ATOM     41  C   UNL     1       8.650  19.341  -7.171  1.00  0.00    -0.017 A 
ATOM     42  C   UNL     1       8.118  18.065  -7.474  1.00  0.00    -0.018 A 
ATOM     43  C   UNL     1       8.233  19.991  -5.998  1.00  0.00     0.009 A 
ATOM     44  C   UNL     1       7.217  17.465  -6.581  1.00  0.00     0.009 A 
ATOM     45  C   UNL     1       7.335  19.378  -5.123  1.00  0.00     0.001 A 
ATOM     46  C   UNL     1       6.837  18.111  -5.410  1.00  0.00     0.001 A 
ENDBRANCH  36  37
ENDBRANCH  35  36
BRANCH  35  47
ATOM     47  C   UNL     1      12.711  17.533 -10.870  1.00  0.00     0.317 C 
ATOM     48  O   UNL     1      12.808  17.717 -12.076  1.00  0.00    -0.251 OA
BRANCH  47  49
ATOM     49  O   UNL     1      12.652  16.282 -10.351  1.00  0.00    -0.480 OA
ATOM     50  H   UNL     1      11.788  16.125  -9.914  1.00  0.00     0.296 HD
ENDBRANCH  47  49
ENDBRANCH  35  47
ENDBRANCH  34  35
ENDBRANCH  31  34
ENDBRANCH  29  30
ENDBRANCH  28  29
ENDBRANCH  27  28
ENDBRANCH  26  27
ENDBRANCH   1  26
BRANCH   1  51
ATOM     51  C   UNL     1      13.498  14.897  -3.049  1.00  0.00     0.243 C 
ATOM     52  O   UNL     1      12.518  15.131  -2.341  1.00  0.00    -0.273 OA
ATOM     53  N   UNL     1      13.819  13.623  -3.430  1.00  0.00    -0.343 N 
ATOM     54  H   UNL     1      14.534  13.626  -4.151  1.00  0.00     0.164 HD
BRANCH  53  55
ATOM     55  C   UNL     1      13.013  12.396  -3.344  1.00  0.00     0.172 C 
BRANCH  55  56
ATOM     56  C   UNL     1      13.786  11.107  -3.664  1.00  0.00     0.047 C 
BRANCH  56  57
ATOM     57  C   UNL     1      15.137  11.345  -4.315  1.00  0.00     0.125 C 
BRANCH  57  58
ATOM     58  C   UNL     1      15.106  10.955  -5.769  1.00  0.00     0.303 C 
ATOM     59  O   UNL     1      14.105  10.938  -6.449  1.00  0.00    -0.252 OA
BRANCH  58  60
ATOM     60  O   UNL     1      16.312  10.604  -6.276  1.00  0.00    -0.481 OA
ATOM     61  H   UNL     1      17.005  10.599  -5.595  1.00  0.00     0.296 HD
ENDBRANCH  58  60
ENDBRANCH  57  58
ENDBRANCH  56  57
ENDBRANCH  55  56
BRANCH  55  62
ATOM     62  C   UNL     1      11.632  12.260  -4.043  1.00  0.00     0.243 C 
ATOM     63  O   UNL     1      11.426  11.357  -4.858  1.00  0.00    -0.273 OA
ATOM     64  N   UNL     1      10.733  13.270  -3.874  1.00  0.00    -0.342 N 
ATOM     65  H   UNL     1      11.011  14.055  -3.284  1.00  0.00     0.164 HD
BRANCH  64  66
ATOM     66  C   UNL     1       9.548  13.458  -4.727  1.00  0.00     0.175 C 
BRANCH  66  67
ATOM     67  C   UNL     1       9.123  14.944  -4.768  1.00  0.00     0.070 C 
BRANCH  67  68
ATOM     68  C   UNL     1      10.185  15.937  -5.212  1.00  0.00    -0.045 A 
ATOM     69  C   UNL     1      10.948  15.733  -6.373  1.00  0.00     0.007 A 
ATOM     70  C   UNL     1      10.367  17.134  -4.498  1.00  0.00     0.007 A 
ATOM     71  C   UNL     1      11.864  16.701  -6.809  1.00  0.00     0.046 A 
ATOM     72  C   UNL     1      11.282  18.099  -4.931  1.00  0.00     0.046 A 
ATOM     73  C   UNL     1      12.019  17.878  -6.086  1.00  0.00     0.115 A 
BRANCH  73  74
ATOM     74  O   UNL     1      12.882  18.856  -6.484  1.00  0.00    -0.508 OA
ATOM     75  H   UNL     1      13.649  18.858  -5.889  1.00  0.00     0.293 HD
ENDBRANCH  73  74
ENDBRANCH  67  68
ENDBRANCH  66  67
BRANCH  66  76
ATOM     76  C   UNL     1       8.359  12.570  -4.247  1.00  0.00     0.243 C 
ATOM     77  O   UNL     1       7.660  11.911  -5.015  1.00  0.00    -0.273 OA
ATOM     78  N   UNL     1       8.232  12.448  -2.879  1.00  0.00    -0.345 N 
ATOM     79  H   UNL     1       8.987  12.806  -2.294  1.00  0.00     0.164 HD
BRANCH  78  80
ATOM     80  C   UNL     1       7.237  11.609  -2.241  1.00  0.00     0.216 C 
BRANCH  80  81
ATOM     81  C   UNL     1       7.619  10.122  -2.356  1.00  0.00     0.240 C 
ATOM     82  O   UNL     1       6.856   9.204  -2.052  1.00  0.00    -0.273 OA
ATOM     83  N   UNL     1       8.889   9.888  -2.837  1.00  0.00    -0.343 N 
ATOM     84  H   UNL     1       9.375  10.632  -3.326  1.00  0.00     0.164 HD
BRANCH  83  85
ATOM     85  C   UNL     1       9.413   8.523  -2.991  1.00  0.00     0.173 C 
BRANCH  85  86
ATOM     86  C   UNL     1       9.195   8.108  -4.461  1.00  0.00     0.240 C 
ATOM     87  N   UNL     1       9.318   9.122  -5.369  1.00  0.00    -0.368 N 
ATOM     88  O   UNL     1       9.009   6.953  -4.833  1.00  0.00    -0.273 OA
ATOM     89  H   UNL     1       9.819   9.969  -5.106  1.00  0.00     0.159 HD
ATOM     90  H   UNL     1       9.294   8.869  -6.347  1.00  0.00     0.159 HD
ENDBRANCH  85  86
BRANCH  85  91
ATOM     91  C   UNL     1      10.907   8.442  -2.600  1.00  0.00     0.015 C 
ATOM     92  C   UNL     1      11.241   9.428  -1.474  1.00  0.00     0.010 C 
ATOM     93  C   UNL     1      11.290   7.028  -2.140  1.00  0.00     0.010 C 
ENDBRANCH  85  91
ENDBRANCH  83  85
ENDBRANCH  80  81
ENDBRANCH  78  80
ENDBRANCH  66  76
ENDBRANCH  64  66
ENDBRANCH  55  62
ENDBRANCH  53  55
ENDBRANCH   1  51
TORSDOF 39
ENDMDL
