REMARK SMILES O=C(O)CCNC(=S)NCCCC[C@H](NS(=O)(=O)c1cccc(F)c1)C(=O)N[C@@H](Cc1c[nH]c2ccccc12)C(=O)NC1CCC1
REMARK SMILES IDX 11 1 12 2 13 3 14 4 15 5 16 7 17 8 18 9 19 10 20 11 25 12
REMARK SMILES IDX 21 13 23 14 22 15 24 16 26 17 27 18 28 19 29 21 40 22 41 23
REMARK SMILES IDX 42 24 43 26 44 27 46 28 45 29 30 30 31 31 39 32 32 33 34 34
REMARK SMILES IDX 38 35 33 36 35 37 37 38 36 40 10 41 9 42 7 44 8 45 6 46 5 48
REMARK SMILES IDX 4 49 2 50 1 51 3 52
REMARK H PARENT 15 6 28 20 42 25 33 39 9 43 6 47 3 53
REMARK Flexibility Score: inf
ROOT
ATOM      1  C   UNL     1       8.189   1.821   0.000  1.00  0.00     0.021 C 
ENDROOT
BRANCH   1   2
ATOM      2  C   UNL     1       7.210   1.615   0.000  1.00  0.00     0.004 C 
BRANCH   2   3
ATOM      3  C   UNL     1       6.899   0.664   0.000  1.00  0.00     0.030 C 
BRANCH   3   4
ATOM      4  C   UNL     1       5.921   0.458   0.000  1.00  0.00     0.159 C 
BRANCH   4   5
ATOM      5  N   UNL     1       5.253   1.202   0.000  1.00  0.00    -0.199 NA
ATOM      6  H   UNL     1       4.646   1.075   0.000  1.00  0.00     0.142 HD
BRANCH   5   7
ATOM      7  S   UNL     1       5.564   2.153   0.000  1.00  0.00     0.241 S 
ATOM      8  O   UNL     1       4.613   2.464   0.000  1.00  0.00    -0.207 OA
ATOM      9  O   UNL     1       6.514   1.842   0.000  1.00  0.00    -0.207 OA
BRANCH   7  10
ATOM     10  C   UNL     1       5.874   3.103   0.000  1.00  0.00     0.085 A 
ATOM     11  C   UNL     1       6.853   3.310   0.000  1.00  0.00     0.022 A 
ATOM     12  C   UNL     1       5.207   3.848   0.000  1.00  0.00     0.061 A 
ATOM     13  C   UNL     1       7.164   4.260   0.000  1.00  0.00     0.004 A 
ATOM     14  C   UNL     1       5.517   4.798   0.000  1.00  0.00     0.124 A 
ATOM     15  C   UNL     1       6.496   5.005   0.000  1.00  0.00     0.039 A 
ATOM     16  F   UNL     1       4.849   5.543   0.000  1.00  0.00    -0.207 F 
ENDBRANCH   7  10
ENDBRANCH   5   7
ENDBRANCH   4   5
BRANCH   4  17
ATOM     17  C   UNL     1       5.610  -0.492   0.000  1.00  0.00     0.238 C 
ATOM     18  O   UNL     1       4.632  -0.699   0.000  1.00  0.00    -0.273 OA
ATOM     19  N   UNL     1       6.278  -1.237   0.000  1.00  0.00    -0.343 N 
ATOM     20  H   UNL     1       6.885  -1.109   0.000  1.00  0.00     0.164 HD
BRANCH  19  21
ATOM     21  C   UNL     1       5.967  -2.187   0.000  1.00  0.00     0.175 C 
BRANCH  21  22
ATOM     22  C   UNL     1       6.635  -2.931   0.000  1.00  0.00     0.243 C 
ATOM     23  O   UNL     1       6.325  -3.882   0.000  1.00  0.00    -0.273 OA
ATOM     24  N   UNL     1       7.614  -2.725   0.000  1.00  0.00    -0.352 N 
ATOM     25  H   UNL     1       7.806  -2.136   0.000  1.00  0.00     0.163 HD
BRANCH  24  26
ATOM     26  C   UNL     1       8.282  -3.470   0.000  1.00  0.00     0.082 C 
ATOM     27  C   UNL     1       8.228  -4.468   0.000  1.00  0.00     0.025 C 
ATOM     28  C   UNL     1       9.280  -3.524   0.000  1.00  0.00     0.025 C 
ATOM     29  C   UNL     1       9.226  -4.522   0.000  1.00  0.00     0.004 C 
ENDBRANCH  24  26
ENDBRANCH  21  22
BRANCH  21  30
ATOM     30  C   UNL     1       4.989  -2.393   0.000  1.00  0.00     0.072 C 
BRANCH  30  31
ATOM     31  C   UNL     1       4.678  -3.344   0.000  1.00  0.00    -0.020 A 
ATOM     32  C   UNL     1       3.732  -3.649   0.000  1.00  0.00     0.003 A 
ATOM     33  C   UNL     1       5.262  -4.149   0.000  1.00  0.00     0.087 A 
ATOM     34  C   UNL     1       3.732  -4.649   0.000  1.00  0.00     0.046 A 
ATOM     35  C   UNL     1       2.866  -3.149   0.000  1.00  0.00     0.010 A 
ATOM     36  N   UNL     1       4.678  -4.953   0.000  1.00  0.00    -0.361 N 
ATOM     37  C   UNL     1       2.866  -5.149   0.000  1.00  0.00     0.026 A 
ATOM     38  C   UNL     1       2.000  -3.649   0.000  1.00  0.00     0.001 A 
ATOM     39  H   UNL     1       4.871  -5.543   0.000  1.00  0.00     0.166 HD
ATOM     40  C   UNL     1       2.000  -4.649   0.000  1.00  0.00     0.002 A 
ENDBRANCH  30  31
ENDBRANCH  21  30
ENDBRANCH  19  21
ENDBRANCH   4  17
ENDBRANCH   3   4
ENDBRANCH   2   3
ENDBRANCH   1   2
BRANCH   1  41
ATOM     41  C   UNL     1       8.856   1.077   0.000  1.00  0.00     0.115 C 
BRANCH  41  42
ATOM     42  N   UNL     1       9.835   1.283   0.000  1.00  0.00    -0.363 N 
ATOM     43  H   UNL     1      10.028   1.872   0.000  1.00  0.00     0.162 HD
BRANCH  42  44
ATOM     44  C   UNL     1      10.503   0.539   0.000  1.00  0.00     0.166 C 
ATOM     45  S   UNL     1      10.192  -0.412   0.000  1.00  0.00    -0.041 S 
BRANCH  44  46
ATOM     46  N   UNL     1      11.481   0.745   0.000  1.00  0.00    -0.362 N 
ATOM     47  H   UNL     1      11.674   1.334   0.000  1.00  0.00     0.162 HD
BRANCH  46  48
ATOM     48  C   UNL     1      12.149   0.001   0.000  1.00  0.00     0.127 C 
BRANCH  48  49
ATOM     49  C   UNL     1      13.128   0.207   0.000  1.00  0.00     0.143 C 
BRANCH  49  50
ATOM     50  C   UNL     1      13.796  -0.537   0.000  1.00  0.00     0.305 C 
ATOM     51  O   UNL     1      13.485  -1.488   0.000  1.00  0.00    -0.252 OA
BRANCH  50  52
ATOM     52  O   UNL     1      14.774  -0.331   0.000  1.00  0.00    -0.481 OA
ATOM     53  H   UNL     1      15.188  -0.793   0.000  1.00  0.00     0.296 HD
ENDBRANCH  50  52
ENDBRANCH  49  50
ENDBRANCH  48  49
ENDBRANCH  46  48
ENDBRANCH  44  46
ENDBRANCH  42  44
ENDBRANCH  41  42
ENDBRANCH   1  41
TORSDOF 20
