MODEL 1
REMARK VINA RESULT:    -7.005      0.000      0.000
REMARK INTER + INTRA:         -25.109
REMARK INTER:                 -20.722
REMARK INTRA:                  -4.387
REMARK UNBOUND:                -4.387
REMARK SMILES [H]/N=C(\N)NCCCC[C@@H]1NC(=O)CCCCCCC(=O)NCCCCC[C@@H](C(N)=O)NC(=O)[C@@H](CCCCNC(=S)NCCC(=O)O)NC1=O
REMARK SMILES IDX 36 1 35 2 49 3 50 4 51 5 10 7 9 8 8 9 7 10 6 11 5 12 2 13
REMARK SMILES IDX 3 14 1 15 4 16 11 20 12 21 13 23 14 24 15 25 16 26 17 27
REMARK SMILES IDX 18 28 33 30 34 31 32 32 28 34 27 35 26 36 25 37 24 38 23 39
REMARK SMILES IDX 22 40 20 41 21 43 19 44 29 46 30 47 31 48 37 51 38 52 39 53
REMARK SMILES IDX 40 54 41 56 42 57 43 58 44 60 45 61 46 62 47 63 48 64
REMARK H PARENT 49 6 4 17 4 18 5 19 11 22 32 33 22 42 30 49 30 50 40 55 43 59
REMARK H PARENT 48 65
REMARK Flexibility Score: 80.00
ROOT
ATOM      1  C   UNL     1      55.837  36.571 -27.535  1.00  0.00     0.035 C 
ENDROOT
BRANCH   1   2
ATOM      2  C   UNL     1      55.399  37.968 -27.044  1.00  0.00     0.171 C 
BRANCH   2   3
ATOM      3  N   UNL     1      54.072  38.464 -27.549  1.00  0.00    -0.343 N 
ATOM      4  C   UNL     1      53.743  38.543 -28.867  1.00  0.00     0.243 C 
ATOM      5  O   UNL     1      54.662  38.785 -29.653  1.00  0.00    -0.273 OA
ATOM      6  H   UNL     1      53.883  39.349 -27.088  1.00  0.00     0.164 HD
BRANCH   4   7
ATOM      7  C   UNL     1      52.288  38.771 -29.440  1.00  0.00     0.171 C 
BRANCH   7   8
ATOM      8  C   UNL     1      51.884  37.302 -29.985  1.00  0.00     0.035 C 
BRANCH   8   9
ATOM      9  C   UNL     1      51.411  36.098 -29.045  1.00  0.00     0.004 C 
BRANCH   9  10
ATOM     10  C   UNL     1      52.578  35.146 -28.627  1.00  0.00     0.021 C 
BRANCH  10  11
ATOM     11  C   UNL     1      53.571  34.715 -29.740  1.00  0.00     0.116 C 
BRANCH  11  12
ATOM     12  N   UNL     1      53.050  33.574 -30.508  1.00  0.00    -0.357 N 
ATOM     13  N   UNL     1      51.289  32.631 -31.615  1.00  0.00    -0.270 NA
ATOM     14  C   UNL     1      52.164  33.600 -31.533  1.00  0.00     0.185 C 
ATOM     15  H   UNL     1      50.684  32.824 -32.439  1.00  0.00     0.191 HD
ATOM     16  N   UNL     1      52.292  34.606 -32.423  1.00  0.00    -0.370 N 
ATOM     17  H   UNL     1      51.821  34.405 -33.315  1.00  0.00     0.159 HD
ATOM     18  H   UNL     1      53.277  34.798 -32.612  1.00  0.00     0.159 HD
ATOM     19  H   UNL     1      52.833  32.782 -29.903  1.00  0.00     0.163 HD
ENDBRANCH  11  12
ENDBRANCH  10  11
ENDBRANCH   9  10
ENDBRANCH   8   9
ENDBRANCH   7   8
BRANCH   7  20
ATOM     20  N   UNL     1      51.666  39.923 -30.367  1.00  0.00    -0.344 N 
ATOM     21  C   UNL     1      51.479  41.299 -30.119  1.00  0.00     0.220 C 
ATOM     22  H   UNL     1      50.758  39.601 -30.674  1.00  0.00     0.164 HD
ATOM     23  O   UNL     1      51.809  41.778 -29.032  1.00  0.00    -0.275 OA
BRANCH  21  24
ATOM     24  C   UNL     1      50.933  42.337 -31.292  1.00  0.00     0.100 C 
BRANCH  24  25
ATOM     25  C   UNL     1      51.271  43.842 -31.609  1.00  0.00     0.010 C 
BRANCH  25  26
ATOM     26  C   UNL     1      50.432  44.883 -30.867  1.00  0.00     0.001 C 
BRANCH  26  27
ATOM     27  C   UNL     1      50.701  46.362 -31.266  1.00  0.00     0.001 C 
BRANCH  27  28
ATOM     28  C   UNL     1      52.138  46.550 -30.865  1.00  0.00     0.010 CG0
ATOM     29  G   UNL     1      53.279  47.147 -31.623  1.00  0.00     0.000 G0
ENDBRANCH  27  28
ENDBRANCH  26  27
ENDBRANCH  25  26
ENDBRANCH  24  25
ENDBRANCH  21  24
ENDBRANCH   7  20
ENDBRANCH   4   7
ENDBRANCH   2   3
BRANCH   2  30
ATOM     30  C   UNL     1      55.204  38.025 -25.484  1.00  0.00     0.243 C 
ATOM     31  O   UNL     1      54.160  37.637 -24.962  1.00  0.00    -0.273 OA
ATOM     32  N   UNL     1      56.351  38.223 -24.742  1.00  0.00    -0.343 N 
ATOM     33  H   UNL     1      57.148  38.715 -25.132  1.00  0.00     0.164 HD
BRANCH  32  34
ATOM     34  C   UNL     1      56.612  37.525 -23.479  1.00  0.00     0.171 C 
BRANCH  34  35
ATOM     35  C   UNL     1      58.108  37.123 -23.364  1.00  0.00     0.035 C 
BRANCH  35  36
ATOM     36  C   UNL     1      58.377  36.303 -22.097  1.00  0.00     0.003 C 
BRANCH  36  37
ATOM     37  C   UNL     1      59.793  35.789 -21.886  1.00  0.00     0.002 C 
BRANCH  37  38
ATOM     38  C   UNL     1      60.232  35.911 -20.393  1.00  0.00     0.021 C 
BRANCH  38  39
ATOM     39  C   UNL     1      59.024  35.760 -19.465  1.00  0.00     0.116 C 
BRANCH  39  40
ATOM     40  N   UNL     1      59.174  36.019 -18.024  1.00  0.00    -0.356 N 
ATOM     41  C   UNL     1      59.792  35.314 -17.009  1.00  0.00     0.219 C 
ATOM     42  H   UNL     1      58.620  36.769 -17.632  1.00  0.00     0.163 HD
ATOM     43  O   UNL     1      59.597  35.719 -15.854  1.00  0.00    -0.275 OA
BRANCH  41  44
ATOM     44  C   UNL     1      60.726  34.081 -17.208  1.00  0.00     0.100 CG0
ATOM     45  G   UNL     1      61.348  33.664 -15.916  1.00  0.00     0.000 G0
ENDBRANCH  41  44
ENDBRANCH  39  40
ENDBRANCH  38  39
ENDBRANCH  37  38
ENDBRANCH  36  37
ENDBRANCH  35  36
ENDBRANCH  34  35
BRANCH  34  46
ATOM     46  C   UNL     1      56.234  38.459 -22.329  1.00  0.00     0.240 C 
ATOM     47  N   UNL     1      56.801  39.704 -22.348  1.00  0.00    -0.368 N 
ATOM     48  O   UNL     1      55.429  38.167 -21.440  1.00  0.00    -0.273 OA
ATOM     49  H   UNL     1      57.554  39.955 -22.964  1.00  0.00     0.159 HD
ATOM     50  H   UNL     1      56.587  40.314 -21.571  1.00  0.00     0.159 HD
ENDBRANCH  34  46
ENDBRANCH  32  34
ENDBRANCH   2  30
ENDBRANCH   1   2
BRANCH   1  51
ATOM     51  C   UNL     1      57.168  36.421 -28.298  1.00  0.00     0.004 C 
BRANCH  51  52
ATOM     52  C   UNL     1      58.155  37.596 -28.218  1.00  0.00     0.021 C 
BRANCH  52  53
ATOM     53  C   UNL     1      58.361  38.168 -29.615  1.00  0.00     0.115 C 
BRANCH  53  54
ATOM     54  N   UNL     1      57.429  39.217 -29.991  1.00  0.00    -0.363 N 
ATOM     55  H   UNL     1      56.596  39.299 -29.425  1.00  0.00     0.162 HD
BRANCH  54  56
ATOM     56  C   UNL     1      57.576  40.093 -31.047  1.00  0.00     0.166 C 
ATOM     57  S   UNL     1      58.991  40.862 -31.479  1.00  0.00    -0.041 S 
BRANCH  56  58
ATOM     58  N   UNL     1      56.352  40.337 -31.637  1.00  0.00    -0.362 N 
ATOM     59  H   UNL     1      55.737  39.535 -31.702  1.00  0.00     0.162 HD
BRANCH  58  60
ATOM     60  C   UNL     1      55.964  41.506 -32.429  1.00  0.00     0.127 C 
BRANCH  60  61
ATOM     61  C   UNL     1      54.455  41.661 -32.502  1.00  0.00     0.143 C 
BRANCH  61  62
ATOM     62  C   UNL     1      53.693  40.556 -33.195  1.00  0.00     0.305 C 
ATOM     63  O   UNL     1      53.642  39.424 -32.730  1.00  0.00    -0.252 OA
BRANCH  62  64
ATOM     64  O   UNL     1      53.031  40.878 -34.321  1.00  0.00    -0.481 OA
ATOM     65  H   UNL     1      53.049  40.210 -35.037  1.00  0.00     0.296 HD
ENDBRANCH  62  64
ENDBRANCH  61  62
ENDBRANCH  60  61
ENDBRANCH  58  60
ENDBRANCH  56  58
ENDBRANCH  54  56
ENDBRANCH  53  54
ENDBRANCH  52  53
ENDBRANCH  51  52
ENDBRANCH   1  51
TORSDOF 17
ENDMDL
MODEL 2
REMARK VINA RESULT:    -6.628      3.043      4.039
REMARK INTER + INTRA:         -23.995
REMARK INTER:                 -20.188
REMARK INTRA:                  -3.808
REMARK UNBOUND:                -4.387
REMARK SMILES [H]/N=C(\N)NCCCC[C@@H]1NC(=O)CCCCCCC(=O)NCCCCC[C@@H](C(N)=O)NC(=O)[C@@H](CCCCNC(=S)NCCC(=O)O)NC1=O
REMARK SMILES IDX 36 1 35 2 49 3 50 4 51 5 10 7 9 8 8 9 7 10 6 11 5 12 2 13
REMARK SMILES IDX 3 14 1 15 4 16 11 20 12 21 13 23 14 24 15 25 16 26 17 27
REMARK SMILES IDX 18 28 33 30 34 31 32 32 28 34 27 35 26 36 25 37 24 38 23 39
REMARK SMILES IDX 22 40 20 41 21 43 19 44 29 46 30 47 31 48 37 51 38 52 39 53
REMARK SMILES IDX 40 54 41 56 42 57 43 58 44 60 45 61 46 62 47 63 48 64
REMARK H PARENT 49 6 4 17 4 18 5 19 11 22 32 33 22 42 30 49 30 50 40 55 43 59
REMARK H PARENT 48 65
REMARK Flexibility Score: 80.00
ROOT
ATOM      1  C   UNL     1      55.827  36.378 -27.903  1.00  0.00     0.035 C 
ENDROOT
BRANCH   1   2
ATOM      2  C   UNL     1      55.295  37.751 -27.436  1.00  0.00     0.171 C 
BRANCH   2   3
ATOM      3  N   UNL     1      53.971  38.180 -28.007  1.00  0.00    -0.343 N 
ATOM      4  C   UNL     1      53.810  38.663 -29.270  1.00  0.00     0.243 C 
ATOM      5  O   UNL     1      54.752  39.305 -29.740  1.00  0.00    -0.273 OA
ATOM      6  H   UNL     1      53.538  38.807 -27.336  1.00  0.00     0.164 HD
BRANCH   4   7
ATOM      7  C   UNL     1      52.428  38.848 -30.014  1.00  0.00     0.171 C 
BRANCH   7   8
ATOM      8  C   UNL     1      52.382  37.568 -31.004  1.00  0.00     0.035 C 
BRANCH   8   9
ATOM      9  C   UNL     1      53.581  36.524 -31.172  1.00  0.00     0.004 C 
BRANCH   9  10
ATOM     10  C   UNL     1      53.107  35.108 -31.634  1.00  0.00     0.021 C 
BRANCH  10  11
ATOM     11  C   UNL     1      52.404  34.218 -30.574  1.00  0.00     0.116 C 
BRANCH  11  12
ATOM     12  N   UNL     1      52.742  34.647 -29.208  1.00  0.00    -0.357 N 
ATOM     13  N   UNL     1      52.198  35.917 -27.390  1.00  0.00    -0.270 NA
ATOM     14  C   UNL     1      51.889  34.932 -28.194  1.00  0.00     0.185 C 
ATOM     15  H   UNL     1      51.430  36.007 -26.695  1.00  0.00     0.191 HD
ATOM     16  N   UNL     1      50.808  34.135 -28.065  1.00  0.00    -0.370 N 
ATOM     17  H   UNL     1      50.385  34.195 -27.129  1.00  0.00     0.159 HD
ATOM     18  H   UNL     1      51.053  33.162 -28.249  1.00  0.00     0.159 HD
ATOM     19  H   UNL     1      53.499  35.329 -29.206  1.00  0.00     0.163 HD
ENDBRANCH  11  12
ENDBRANCH  10  11
ENDBRANCH   9  10
ENDBRANCH   8   9
ENDBRANCH   7   8
BRANCH   7  20
ATOM     20  N   UNL     1      51.734  40.127 -30.689  1.00  0.00    -0.344 N 
ATOM     21  C   UNL     1      51.538  41.433 -30.194  1.00  0.00     0.220 C 
ATOM     22  H   UNL     1      50.816  39.839 -30.999  1.00  0.00     0.164 HD
ATOM     23  O   UNL     1      51.922  41.723 -29.059  1.00  0.00    -0.275 OA
BRANCH  21  24
ATOM     24  C   UNL     1      50.908  42.644 -31.135  1.00  0.00     0.100 C 
BRANCH  24  25
ATOM     25  C   UNL     1      51.242  44.179 -31.242  1.00  0.00     0.010 C 
BRANCH  25  26
ATOM     26  C   UNL     1      52.574  44.525 -31.911  1.00  0.00     0.001 C 
BRANCH  26  27
ATOM     27  C   UNL     1      53.400  43.309 -32.418  1.00  0.00     0.001 C 
BRANCH  27  28
ATOM     28  C   UNL     1      53.419  43.528 -33.906  1.00  0.00     0.010 CG0
ATOM     29  G   UNL     1      53.120  44.755 -34.703  1.00  0.00     0.000 G0
ENDBRANCH  27  28
ENDBRANCH  26  27
ENDBRANCH  25  26
ENDBRANCH  24  25
ENDBRANCH  21  24
ENDBRANCH   7  20
ENDBRANCH   4   7
ENDBRANCH   2   3
BRANCH   2  30
ATOM     30  C   UNL     1      55.020  37.797 -25.888  1.00  0.00     0.243 C 
ATOM     31  O   UNL     1      54.064  37.197 -25.397  1.00  0.00    -0.273 OA
ATOM     32  N   UNL     1      56.058  38.262 -25.106  1.00  0.00    -0.343 N 
ATOM     33  H   UNL     1      56.743  38.910 -25.479  1.00  0.00     0.164 HD
BRANCH  32  34
ATOM     34  C   UNL     1      56.408  37.667 -23.813  1.00  0.00     0.171 C 
BRANCH  34  35
ATOM     35  C   UNL     1      57.916  37.298 -23.760  1.00  0.00     0.035 C 
BRANCH  35  36
ATOM     36  C   UNL     1      58.234  36.390 -22.566  1.00  0.00     0.003 C 
BRANCH  36  37
ATOM     37  C   UNL     1      59.697  36.225 -22.184  1.00  0.00     0.002 C 
BRANCH  37  38
ATOM     38  C   UNL     1      59.885  35.135 -21.083  1.00  0.00     0.021 C 
BRANCH  38  39
ATOM     39  C   UNL     1      58.802  35.266 -20.009  1.00  0.00     0.116 C 
BRANCH  39  40
ATOM     40  N   UNL     1      59.042  36.116 -18.831  1.00  0.00    -0.356 N 
ATOM     41  C   UNL     1      59.693  35.888 -17.634  1.00  0.00     0.219 C 
ATOM     42  H   UNL     1      58.536  36.990 -18.785  1.00  0.00     0.163 HD
ATOM     43  O   UNL     1      59.577  36.763 -16.765  1.00  0.00    -0.275 OA
BRANCH  41  44
ATOM     44  C   UNL     1      60.574  34.642 -17.310  1.00  0.00     0.100 CG0
ATOM     45  G   UNL     1      61.948  35.050 -16.889  1.00  0.00     0.000 G0
ENDBRANCH  41  44
ENDBRANCH  39  40
ENDBRANCH  38  39
ENDBRANCH  37  38
ENDBRANCH  36  37
ENDBRANCH  35  36
ENDBRANCH  34  35
BRANCH  34  46
ATOM     46  C   UNL     1      56.081  38.680 -22.716  1.00  0.00     0.240 C 
ATOM     47  N   UNL     1      55.209  38.264 -21.746  1.00  0.00    -0.368 N 
ATOM     48  O   UNL     1      56.589  39.803 -22.640  1.00  0.00    -0.273 OA
ATOM     49  H   UNL     1      54.669  37.420 -21.820  1.00  0.00     0.159 HD
ATOM     50  H   UNL     1      54.957  38.940 -21.039  1.00  0.00     0.159 HD
ENDBRANCH  34  46
ENDBRANCH  32  34
ENDBRANCH   2  30
ENDBRANCH   1   2
BRANCH   1  51
ATOM     51  C   UNL     1      57.018  36.322 -28.879  1.00  0.00     0.004 C 
BRANCH  51  52
ATOM     52  C   UNL     1      58.420  36.506 -28.281  1.00  0.00     0.021 C 
BRANCH  52  53
ATOM     53  C   UNL     1      59.451  35.922 -29.240  1.00  0.00     0.115 C 
BRANCH  53  54
ATOM     54  N   UNL     1      59.921  34.590 -28.897  1.00  0.00    -0.363 N 
ATOM     55  H   UNL     1      60.570  34.531 -28.124  1.00  0.00     0.162 HD
BRANCH  54  56
ATOM     56  C   UNL     1      59.571  33.417 -29.533  1.00  0.00     0.166 C 
ATOM     57  S   UNL     1      59.583  31.899 -28.842  1.00  0.00    -0.041 S 
BRANCH  56  58
ATOM     58  N   UNL     1      59.315  33.658 -30.868  1.00  0.00    -0.362 N 
ATOM     59  H   UNL     1      58.488  34.210 -31.055  1.00  0.00     0.162 HD
BRANCH  58  60
ATOM     60  C   UNL     1      59.907  32.979 -32.023  1.00  0.00     0.127 C 
BRANCH  60  61
ATOM     61  C   UNL     1      60.541  33.963 -32.990  1.00  0.00     0.143 C 
BRANCH  61  62
ATOM     62  C   UNL     1      61.228  35.164 -32.383  1.00  0.00     0.305 C 
ATOM     63  O   UNL     1      62.030  35.047 -31.464  1.00  0.00    -0.252 OA
BRANCH  62  64
ATOM     64  O   UNL     1      60.960  36.364 -32.925  1.00  0.00    -0.481 OA
ATOM     65  H   UNL     1      61.070  36.434 -33.896  1.00  0.00     0.296 HD
ENDBRANCH  62  64
ENDBRANCH  61  62
ENDBRANCH  60  61
ENDBRANCH  58  60
ENDBRANCH  56  58
ENDBRANCH  54  56
ENDBRANCH  53  54
ENDBRANCH  52  53
ENDBRANCH  51  52
ENDBRANCH   1  51
TORSDOF 17
ENDMDL
MODEL 3
REMARK VINA RESULT:    -6.492      2.759      4.178
REMARK INTER + INTRA:         -23.594
REMARK INTER:                 -19.756
REMARK INTRA:                  -3.838
REMARK UNBOUND:                -4.387
REMARK SMILES [H]/N=C(\N)NCCCC[C@@H]1NC(=O)CCCCCCC(=O)NCCCCC[C@@H](C(N)=O)NC(=O)[C@@H](CCCCNC(=S)NCCC(=O)O)NC1=O
REMARK SMILES IDX 36 1 35 2 49 3 50 4 51 5 10 7 9 8 8 9 7 10 6 11 5 12 2 13
REMARK SMILES IDX 3 14 1 15 4 16 11 20 12 21 13 23 14 24 15 25 16 26 17 27
REMARK SMILES IDX 18 28 33 30 34 31 32 32 28 34 27 35 26 36 25 37 24 38 23 39
REMARK SMILES IDX 22 40 20 41 21 43 19 44 29 46 30 47 31 48 37 51 38 52 39 53
REMARK SMILES IDX 40 54 41 56 42 57 43 58 44 60 45 61 46 62 47 63 48 64
REMARK H PARENT 49 6 4 17 4 18 5 19 11 22 32 33 22 42 30 49 30 50 40 55 43 59
REMARK H PARENT 48 65
REMARK Flexibility Score: 80.00
ROOT
ATOM      1  C   UNL     1      55.903  36.563 -27.630  1.00  0.00     0.035 C 
ENDROOT
BRANCH   1   2
ATOM      2  C   UNL     1      55.371  37.937 -27.168  1.00  0.00     0.171 C 
BRANCH   2   3
ATOM      3  N   UNL     1      54.037  38.353 -27.724  1.00  0.00    -0.343 N 
ATOM      4  C   UNL     1      53.830  38.696 -29.025  1.00  0.00     0.243 C 
ATOM      5  O   UNL     1      54.770  39.241 -29.609  1.00  0.00    -0.273 OA
ATOM      6  H   UNL     1      53.661  39.069 -27.110  1.00  0.00     0.164 HD
BRANCH   4   7
ATOM      7  C   UNL     1      52.420  38.854 -29.723  1.00  0.00     0.171 C 
BRANCH   7   8
ATOM      8  C   UNL     1      52.270  37.465 -30.541  1.00  0.00     0.035 C 
BRANCH   8   9
ATOM      9  C   UNL     1      53.444  36.803 -31.403  1.00  0.00     0.004 C 
BRANCH   9  10
ATOM     10  C   UNL     1      53.886  35.402 -30.869  1.00  0.00     0.021 C 
BRANCH  10  11
ATOM     11  C   UNL     1      52.827  34.574 -30.093  1.00  0.00     0.116 C 
BRANCH  11  12
ATOM     12  N   UNL     1      52.958  34.767 -28.641  1.00  0.00    -0.357 N 
ATOM     13  N   UNL     1      52.285  35.892 -26.771  1.00  0.00    -0.270 NA
ATOM     14  C   UNL     1      51.983  35.085 -27.755  1.00  0.00     0.185 C 
ATOM     15  H   UNL     1      51.421  36.041 -26.211  1.00  0.00     0.191 HD
ATOM     16  N   UNL     1      50.782  34.495 -27.934  1.00  0.00    -0.370 N 
ATOM     17  H   UNL     1      50.201  34.522 -27.086  1.00  0.00     0.159 HD
ATOM     18  H   UNL     1      50.897  33.522 -28.219  1.00  0.00     0.159 HD
ATOM     19  H   UNL     1      53.801  35.290 -28.407  1.00  0.00     0.163 HD
ENDBRANCH  11  12
ENDBRANCH  10  11
ENDBRANCH   9  10
ENDBRANCH   8   9
ENDBRANCH   7   8
BRANCH   7  20
ATOM     20  N   UNL     1      51.746  40.071 -30.520  1.00  0.00    -0.344 N 
ATOM     21  C   UNL     1      51.556  41.418 -30.149  1.00  0.00     0.220 C 
ATOM     22  H   UNL     1      50.828  39.762 -30.814  1.00  0.00     0.164 HD
ATOM     23  O   UNL     1      51.929  41.807 -29.040  1.00  0.00    -0.275 OA
BRANCH  21  24
ATOM     24  C   UNL     1      50.947  42.543 -31.203  1.00  0.00     0.100 C 
BRANCH  24  25
ATOM     25  C   UNL     1      51.324  44.048 -31.475  1.00  0.00     0.010 C 
BRANCH  25  26
ATOM     26  C   UNL     1      50.383  45.090 -30.868  1.00  0.00     0.001 C 
BRANCH  26  27
ATOM     27  C   UNL     1      50.698  46.567 -31.239  1.00  0.00     0.001 C 
BRANCH  27  28
ATOM     28  C   UNL     1      49.345  47.220 -31.148  1.00  0.00     0.010 CG0
ATOM     29  G   UNL     1      48.911  48.594 -31.539  1.00  0.00     0.000 G0
ENDBRANCH  27  28
ENDBRANCH  26  27
ENDBRANCH  25  26
ENDBRANCH  24  25
ENDBRANCH  21  24
ENDBRANCH   7  20
ENDBRANCH   4   7
ENDBRANCH   2   3
BRANCH   2  30
ATOM     30  C   UNL     1      55.117  37.995 -25.617  1.00  0.00     0.243 C 
ATOM     31  O   UNL     1      54.070  37.569 -25.130  1.00  0.00    -0.273 OA
ATOM     32  N   UNL     1      56.228  38.242 -24.836  1.00  0.00    -0.343 N 
ATOM     33  H   UNL     1      57.019  38.762 -25.200  1.00  0.00     0.164 HD
BRANCH  32  34
ATOM     34  C   UNL     1      56.470  37.562 -23.559  1.00  0.00     0.171 C 
BRANCH  34  35
ATOM     35  C   UNL     1      57.913  36.991 -23.498  1.00  0.00     0.035 C 
BRANCH  35  36
ATOM     36  C   UNL     1      58.092  36.034 -22.313  1.00  0.00     0.003 C 
BRANCH  36  37
ATOM     37  C   UNL     1      59.164  36.380 -21.292  1.00  0.00     0.002 C 
BRANCH  37  38
ATOM     38  C   UNL     1      60.257  35.268 -21.205  1.00  0.00     0.021 C 
BRANCH  38  39
ATOM     39  C   UNL     1      60.775  35.137 -19.771  1.00  0.00     0.116 C 
BRANCH  39  40
ATOM     40  N   UNL     1      61.037  36.349 -18.976  1.00  0.00    -0.356 N 
ATOM     41  C   UNL     1      60.685  36.715 -17.692  1.00  0.00     0.219 C 
ATOM     42  H   UNL     1      61.422  37.145 -19.468  1.00  0.00     0.163 HD
ATOM     43  O   UNL     1      60.918  37.888 -17.367  1.00  0.00    -0.275 OA
BRANCH  41  44
ATOM     44  C   UNL     1      60.052  35.769 -16.626  1.00  0.00     0.100 CG0
ATOM     45  G   UNL     1      61.102  34.982 -15.914  1.00  0.00     0.000 G0
ENDBRANCH  41  44
ENDBRANCH  39  40
ENDBRANCH  38  39
ENDBRANCH  37  38
ENDBRANCH  36  37
ENDBRANCH  35  36
ENDBRANCH  34  35
BRANCH  34  46
ATOM     46  C   UNL     1      56.261  38.572 -22.431  1.00  0.00     0.240 C 
ATOM     47  N   UNL     1      55.294  38.264 -21.513  1.00  0.00    -0.368 N 
ATOM     48  O   UNL     1      56.936  39.595 -22.288  1.00  0.00    -0.273 OA
ATOM     49  H   UNL     1      54.630  37.522 -21.643  1.00  0.00     0.159 HD
ATOM     50  H   UNL     1      55.123  38.945 -20.787  1.00  0.00     0.159 HD
ENDBRANCH  34  46
ENDBRANCH  32  34
ENDBRANCH   2  30
ENDBRANCH   1   2
BRANCH   1  51
ATOM     51  C   UNL     1      57.394  36.413 -27.992  1.00  0.00     0.004 C 
BRANCH  51  52
ATOM     52  C   UNL     1      57.738  36.243 -29.480  1.00  0.00     0.021 C 
BRANCH  52  53
ATOM     53  C   UNL     1      59.243  36.394 -29.663  1.00  0.00     0.115 C 
BRANCH  53  54
ATOM     54  N   UNL     1      60.053  35.626 -28.733  1.00  0.00    -0.363 N 
ATOM     55  H   UNL     1      59.586  34.871 -28.251  1.00  0.00     0.162 HD
BRANCH  54  56
ATOM     56  C   UNL     1      61.386  35.842 -28.447  1.00  0.00     0.166 C 
ATOM     57  S   UNL     1      62.664  35.480 -29.454  1.00  0.00    -0.041 S 
BRANCH  56  58
ATOM     58  N   UNL     1      61.526  36.300 -27.152  1.00  0.00    -0.362 N 
ATOM     59  H   UNL     1      62.341  35.956 -26.659  1.00  0.00     0.162 HD
BRANCH  58  60
ATOM     60  C   UNL     1      60.513  36.964 -26.329  1.00  0.00     0.127 C 
BRANCH  60  61
ATOM     61  C   UNL     1      61.040  38.249 -25.715  1.00  0.00     0.143 C 
BRANCH  61  62
ATOM     62  C   UNL     1      62.044  39.029 -26.531  1.00  0.00     0.305 C 
ATOM     63  O   UNL     1      61.834  39.312 -27.705  1.00  0.00    -0.252 OA
BRANCH  62  64
ATOM     64  O   UNL     1      63.158  39.442 -25.903  1.00  0.00    -0.481 OA
ATOM     65  H   UNL     1      63.636  40.189 -26.319  1.00  0.00     0.296 HD
ENDBRANCH  62  64
ENDBRANCH  61  62
ENDBRANCH  60  61
ENDBRANCH  58  60
ENDBRANCH  56  58
ENDBRANCH  54  56
ENDBRANCH  53  54
ENDBRANCH  52  53
ENDBRANCH  51  52
ENDBRANCH   1  51
TORSDOF 17
ENDMDL
MODEL 4
REMARK VINA RESULT:    -6.416      3.196      4.542
REMARK INTER + INTRA:         -23.367
REMARK INTER:                 -20.850
REMARK INTRA:                  -2.517
REMARK UNBOUND:                -4.387
REMARK SMILES [H]/N=C(\N)NCCCC[C@@H]1NC(=O)CCCCCCC(=O)NCCCCC[C@@H](C(N)=O)NC(=O)[C@@H](CCCCNC(=S)NCCC(=O)O)NC1=O
REMARK SMILES IDX 36 1 35 2 49 3 50 4 51 5 10 7 9 8 8 9 7 10 6 11 5 12 2 13
REMARK SMILES IDX 3 14 1 15 4 16 11 20 12 21 13 23 14 24 15 25 16 26 17 27
REMARK SMILES IDX 18 28 33 30 34 31 32 32 28 34 27 35 26 36 25 37 24 38 23 39
REMARK SMILES IDX 22 40 20 41 21 43 19 44 29 46 30 47 31 48 37 51 38 52 39 53
REMARK SMILES IDX 40 54 41 56 42 57 43 58 44 60 45 61 46 62 47 63 48 64
REMARK H PARENT 49 6 4 17 4 18 5 19 11 22 32 33 22 42 30 49 30 50 40 55 43 59
REMARK H PARENT 48 65
REMARK Flexibility Score: 80.00
ROOT
ATOM      1  C   UNL     1      55.490  36.360 -27.876  1.00  0.00     0.035 C 
ENDROOT
BRANCH   1   2
ATOM      2  C   UNL     1      55.103  37.761 -27.352  1.00  0.00     0.171 C 
BRANCH   2   3
ATOM      3  N   UNL     1      53.835  38.351 -27.906  1.00  0.00    -0.343 N 
ATOM      4  C   UNL     1      53.717  38.849 -29.167  1.00  0.00     0.243 C 
ATOM      5  O   UNL     1      54.724  39.370 -29.652  1.00  0.00    -0.273 OA
ATOM      6  H   UNL     1      53.492  39.026 -27.230  1.00  0.00     0.164 HD
BRANCH   4   7
ATOM      7  C   UNL     1      52.358  39.204 -29.893  1.00  0.00     0.171 C 
BRANCH   7   8
ATOM      8  C   UNL     1      52.047  37.863 -30.744  1.00  0.00     0.035 C 
BRANCH   8   9
ATOM      9  C   UNL     1      53.099  37.162 -31.724  1.00  0.00     0.004 C 
BRANCH   9  10
ATOM     10  C   UNL     1      53.544  35.744 -31.239  1.00  0.00     0.021 C 
BRANCH  10  11
ATOM     11  C   UNL     1      52.595  35.001 -30.260  1.00  0.00     0.116 C 
BRANCH  11  12
ATOM     12  N   UNL     1      51.738  34.042 -30.973  1.00  0.00    -0.357 N 
ATOM     13  N   UNL     1      50.418  32.181 -30.871  1.00  0.00    -0.270 NA
ATOM     14  C   UNL     1      50.625  33.421 -30.510  1.00  0.00     0.185 C 
ATOM     15  H   UNL     1      49.541  31.863 -30.410  1.00  0.00     0.191 HD
ATOM     16  N   UNL     1      49.788  34.159 -29.751  1.00  0.00    -0.370 N 
ATOM     17  H   UNL     1      48.845  33.752 -29.697  1.00  0.00     0.159 HD
ATOM     18  H   UNL     1      49.712  35.109 -30.115  1.00  0.00     0.159 HD
ATOM     19  H   UNL     1      52.289  33.375 -31.512  1.00  0.00     0.163 HD
ENDBRANCH  11  12
ENDBRANCH  10  11
ENDBRANCH   9  10
ENDBRANCH   8   9
ENDBRANCH   7   8
BRANCH   7  20
ATOM     20  N   UNL     1      51.870  40.514 -30.679  1.00  0.00    -0.344 N 
ATOM     21  C   UNL     1      51.513  41.792 -30.200  1.00  0.00     0.220 C 
ATOM     22  H   UNL     1      51.088  40.239 -31.259  1.00  0.00     0.164 HD
ATOM     23  O   UNL     1      51.541  42.023 -28.989  1.00  0.00    -0.275 OA
BRANCH  21  24
ATOM     24  C   UNL     1      51.164  43.048 -31.224  1.00  0.00     0.100 C 
BRANCH  24  25
ATOM     25  C   UNL     1      51.988  44.320 -31.652  1.00  0.00     0.010 C 
BRANCH  25  26
ATOM     26  C   UNL     1      53.465  44.081 -31.967  1.00  0.00     0.001 C 
BRANCH  26  27
ATOM     27  C   UNL     1      53.756  42.920 -32.961  1.00  0.00     0.001 C 
BRANCH  27  28
ATOM     28  C   UNL     1      53.806  43.632 -34.285  1.00  0.00     0.010 CG0
ATOM     29  G   UNL     1      54.477  44.911 -34.667  1.00  0.00     0.000 G0
ENDBRANCH  27  28
ENDBRANCH  26  27
ENDBRANCH  25  26
ENDBRANCH  24  25
ENDBRANCH  21  24
ENDBRANCH   7  20
ENDBRANCH   4   7
ENDBRANCH   2   3
BRANCH   2  30
ATOM     30  C   UNL     1      54.827  37.772 -25.804  1.00  0.00     0.243 C 
ATOM     31  O   UNL     1      53.888  37.137 -25.324  1.00  0.00    -0.273 OA
ATOM     32  N   UNL     1      55.852  38.251 -25.014  1.00  0.00    -0.343 N 
ATOM     33  H   UNL     1      56.519  38.925 -25.374  1.00  0.00     0.164 HD
BRANCH  32  34
ATOM     34  C   UNL     1      56.219  37.643 -23.731  1.00  0.00     0.171 C 
BRANCH  34  35
ATOM     35  C   UNL     1      57.729  37.280 -23.698  1.00  0.00     0.035 C 
BRANCH  35  36
ATOM     36  C   UNL     1      58.064  36.367 -22.513  1.00  0.00     0.003 C 
BRANCH  36  37
ATOM     37  C   UNL     1      59.534  36.083 -22.245  1.00  0.00     0.002 C 
BRANCH  37  38
ATOM     38  C   UNL     1      59.723  35.138 -21.018  1.00  0.00     0.021 C 
BRANCH  38  39
ATOM     39  C   UNL     1      58.659  35.422 -19.954  1.00  0.00     0.116 C 
BRANCH  39  40
ATOM     40  N   UNL     1      59.044  36.077 -18.694  1.00  0.00    -0.356 N 
ATOM     41  C   UNL     1      59.784  35.650 -17.609  1.00  0.00     0.219 C 
ATOM     42  H   UNL     1      58.588  36.954 -18.475  1.00  0.00     0.163 HD
ATOM     43  O   UNL     1      59.789  36.391 -16.615  1.00  0.00    -0.275 OA
BRANCH  41  44
ATOM     44  C   UNL     1      60.625  34.338 -17.552  1.00  0.00     0.100 CG0
ATOM     45  G   UNL     1      61.970  34.587 -16.951  1.00  0.00     0.000 G0
ENDBRANCH  41  44
ENDBRANCH  39  40
ENDBRANCH  38  39
ENDBRANCH  37  38
ENDBRANCH  36  37
ENDBRANCH  35  36
ENDBRANCH  34  35
BRANCH  34  46
ATOM     46  C   UNL     1      55.899  38.643 -22.619  1.00  0.00     0.240 C 
ATOM     47  N   UNL     1      55.290  38.134 -21.504  1.00  0.00    -0.368 N 
ATOM     48  O   UNL     1      56.200  39.839 -22.660  1.00  0.00    -0.273 OA
ATOM     49  H   UNL     1      54.907  37.206 -21.462  1.00  0.00     0.159 HD
ATOM     50  H   UNL     1      55.040  38.794 -20.780  1.00  0.00     0.159 HD
ENDBRANCH  34  46
ENDBRANCH  32  34
ENDBRANCH   2  30
ENDBRANCH   1   2
BRANCH   1  51
ATOM     51  C   UNL     1      56.407  36.241 -29.109  1.00  0.00     0.004 C 
BRANCH  51  52
ATOM     52  C   UNL     1      57.863  36.701 -28.943  1.00  0.00     0.021 C 
BRANCH  52  53
ATOM     53  C   UNL     1      58.766  35.476 -28.861  1.00  0.00     0.115 C 
BRANCH  53  54
ATOM     54  N   UNL     1      58.856  34.699 -30.086  1.00  0.00    -0.363 N 
ATOM     55  H   UNL     1      58.077  34.778 -30.724  1.00  0.00     0.162 HD
BRANCH  54  56
ATOM     56  C   UNL     1      59.898  33.868 -30.444  1.00  0.00     0.166 C 
ATOM     57  S   UNL     1      61.389  34.366 -31.000  1.00  0.00    -0.041 S 
BRANCH  56  58
ATOM     58  N   UNL     1      59.495  32.549 -30.386  1.00  0.00    -0.362 N 
ATOM     59  H   UNL     1      58.875  32.254 -31.131  1.00  0.00     0.162 HD
BRANCH  58  60
ATOM     60  C   UNL     1      59.609  31.634 -29.248  1.00  0.00     0.127 C 
BRANCH  60  61
ATOM     61  C   UNL     1      59.435  30.186 -29.671  1.00  0.00     0.143 C 
BRANCH  61  62
ATOM     62  C   UNL     1      58.047  29.603 -29.541  1.00  0.00     0.305 C 
ATOM     63  O   UNL     1      57.857  28.393 -29.547  1.00  0.00    -0.252 OA
BRANCH  62  64
ATOM     64  O   UNL     1      57.031  30.467 -29.371  1.00  0.00    -0.481 OA
ATOM     65  H   UNL     1      57.140  31.124 -28.652  1.00  0.00     0.296 HD
ENDBRANCH  62  64
ENDBRANCH  61  62
ENDBRANCH  60  61
ENDBRANCH  58  60
ENDBRANCH  56  58
ENDBRANCH  54  56
ENDBRANCH  53  54
ENDBRANCH  52  53
ENDBRANCH  51  52
ENDBRANCH   1  51
TORSDOF 17
ENDMDL
MODEL 5
REMARK VINA RESULT:    -6.402      3.200      4.468
REMARK INTER + INTRA:         -23.325
REMARK INTER:                 -20.204
REMARK INTRA:                  -3.122
REMARK UNBOUND:                -4.387
REMARK SMILES [H]/N=C(\N)NCCCC[C@@H]1NC(=O)CCCCCCC(=O)NCCCCC[C@@H](C(N)=O)NC(=O)[C@@H](CCCCNC(=S)NCCC(=O)O)NC1=O
REMARK SMILES IDX 36 1 35 2 49 3 50 4 51 5 10 7 9 8 8 9 7 10 6 11 5 12 2 13
REMARK SMILES IDX 3 14 1 15 4 16 11 20 12 21 13 23 14 24 15 25 16 26 17 27
REMARK SMILES IDX 18 28 33 30 34 31 32 32 28 34 27 35 26 36 25 37 24 38 23 39
REMARK SMILES IDX 22 40 20 41 21 43 19 44 29 46 30 47 31 48 37 51 38 52 39 53
REMARK SMILES IDX 40 54 41 56 42 57 43 58 44 60 45 61 46 62 47 63 48 64
REMARK H PARENT 49 6 4 17 4 18 5 19 11 22 32 33 22 42 30 49 30 50 40 55 43 59
REMARK H PARENT 48 65
REMARK Flexibility Score: 80.00
ROOT
ATOM      1  C   UNL     1      55.745  36.357 -27.882  1.00  0.00     0.035 C 
ENDROOT
BRANCH   1   2
ATOM      2  C   UNL     1      55.290  37.740 -27.366  1.00  0.00     0.171 C 
BRANCH   2   3
ATOM      3  N   UNL     1      53.992  38.261 -27.920  1.00  0.00    -0.343 N 
ATOM      4  C   UNL     1      53.839  38.719 -29.192  1.00  0.00     0.243 C 
ATOM      5  O   UNL     1      54.819  39.267 -29.703  1.00  0.00    -0.273 OA
ATOM      6  H   UNL     1      53.630  38.940 -27.258  1.00  0.00     0.164 HD
BRANCH   4   7
ATOM      7  C   UNL     1      52.459  38.998 -29.910  1.00  0.00     0.171 C 
BRANCH   7   8
ATOM      8  C   UNL     1      52.249  37.667 -30.808  1.00  0.00     0.035 C 
BRANCH   8   9
ATOM      9  C   UNL     1      53.427  36.925 -31.595  1.00  0.00     0.004 C 
BRANCH   9  10
ATOM     10  C   UNL     1      53.415  35.373 -31.403  1.00  0.00     0.021 C 
BRANCH  10  11
ATOM     11  C   UNL     1      52.364  34.791 -30.419  1.00  0.00     0.116 C 
BRANCH  11  12
ATOM     12  N   UNL     1      52.770  35.000 -29.021  1.00  0.00    -0.357 N 
ATOM     13  N   UNL     1      52.191  35.687 -26.921  1.00  0.00    -0.270 NA
ATOM     14  C   UNL     1      52.015  34.844 -27.906  1.00  0.00     0.185 C 
ATOM     15  H   UNL     1      51.520  35.433 -26.168  1.00  0.00     0.191 HD
ATOM     16  N   UNL     1      51.172  33.790 -27.884  1.00  0.00    -0.370 N 
ATOM     17  H   UNL     1      50.873  33.547 -26.931  1.00  0.00     0.159 HD
ATOM     18  H   UNL     1      51.608  32.971 -28.308  1.00  0.00     0.159 HD
ATOM     19  H   UNL     1      53.344  35.836 -28.918  1.00  0.00     0.163 HD
ENDBRANCH  11  12
ENDBRANCH  10  11
ENDBRANCH   9  10
ENDBRANCH   8   9
ENDBRANCH   7   8
BRANCH   7  20
ATOM     20  N   UNL     1      51.876  40.294 -30.653  1.00  0.00    -0.344 N 
ATOM     21  C   UNL     1      51.637  41.598 -30.170  1.00  0.00     0.220 C 
ATOM     22  H   UNL     1      51.000  40.024 -31.081  1.00  0.00     0.164 HD
ATOM     23  O   UNL     1      51.877  41.870 -28.991  1.00  0.00    -0.275 OA
BRANCH  21  24
ATOM     24  C   UNL     1      51.150  42.829 -31.168  1.00  0.00     0.100 C 
BRANCH  24  25
ATOM     25  C   UNL     1      50.605  44.276 -30.871  1.00  0.00     0.010 C 
BRANCH  25  26
ATOM     26  C   UNL     1      51.537  45.429 -31.248  1.00  0.00     0.001 C 
BRANCH  26  27
ATOM     27  C   UNL     1      50.908  46.849 -31.162  1.00  0.00     0.001 C 
BRANCH  27  28
ATOM     28  C   UNL     1      49.463  46.548 -30.870  1.00  0.00     0.010 CG0
ATOM     29  G   UNL     1      48.491  45.687 -31.608  1.00  0.00     0.000 G0
ENDBRANCH  27  28
ENDBRANCH  26  27
ENDBRANCH  25  26
ENDBRANCH  24  25
ENDBRANCH  21  24
ENDBRANCH   7  20
ENDBRANCH   4   7
ENDBRANCH   2   3
BRANCH   2  30
ATOM     30  C   UNL     1      55.018  37.746 -25.817  1.00  0.00     0.243 C 
ATOM     31  O   UNL     1      54.105  37.078 -25.332  1.00  0.00    -0.273 OA
ATOM     32  N   UNL     1      56.026  38.267 -25.032  1.00  0.00    -0.343 N 
ATOM     33  H   UNL     1      56.667  38.964 -25.397  1.00  0.00     0.164 HD
BRANCH  32  34
ATOM     34  C   UNL     1      56.419  37.679 -23.747  1.00  0.00     0.171 C 
BRANCH  34  35
ATOM     35  C   UNL     1      57.931  37.322 -23.738  1.00  0.00     0.035 C 
BRANCH  35  36
ATOM     36  C   UNL     1      58.282  36.385 -22.575  1.00  0.00     0.003 C 
BRANCH  36  37
ATOM     37  C   UNL     1      59.754  36.226 -22.228  1.00  0.00     0.002 C 
BRANCH  37  38
ATOM     38  C   UNL     1      59.947  35.534 -20.843  1.00  0.00     0.021 C 
BRANCH  38  39
ATOM     39  C   UNL     1      58.723  35.767 -19.953  1.00  0.00     0.116 C 
BRANCH  39  40
ATOM     40  N   UNL     1      58.882  35.807 -18.490  1.00  0.00    -0.356 N 
ATOM     41  C   UNL     1      59.891  36.281 -17.674  1.00  0.00     0.219 C 
ATOM     42  H   UNL     1      58.219  35.274 -17.942  1.00  0.00     0.163 HD
ATOM     43  O   UNL     1      59.799  36.013 -16.468  1.00  0.00    -0.275 OA
BRANCH  41  44
ATOM     44  C   UNL     1      61.104  37.139 -18.147  1.00  0.00     0.100 CG0
ATOM     45  G   UNL     1      62.062  37.378 -17.027  1.00  0.00     0.000 G0
ENDBRANCH  41  44
ENDBRANCH  39  40
ENDBRANCH  38  39
ENDBRANCH  37  38
ENDBRANCH  36  37
ENDBRANCH  35  36
ENDBRANCH  34  35
BRANCH  34  46
ATOM     46  C   UNL     1      56.116  38.692 -22.644  1.00  0.00     0.240 C 
ATOM     47  N   UNL     1      55.294  38.264 -21.637  1.00  0.00    -0.368 N 
ATOM     48  O   UNL     1      56.602  39.826 -22.596  1.00  0.00    -0.273 OA
ATOM     49  H   UNL     1      54.769  37.409 -21.682  1.00  0.00     0.159 HD
ATOM     50  H   UNL     1      55.057  38.940 -20.924  1.00  0.00     0.159 HD
ENDBRANCH  34  46
ENDBRANCH  32  34
ENDBRANCH   2  30
ENDBRANCH   1   2
BRANCH   1  51
ATOM     51  C   UNL     1      56.859  36.276 -28.944  1.00  0.00     0.004 C 
BRANCH  51  52
ATOM     52  C   UNL     1      58.300  36.500 -28.463  1.00  0.00     0.021 C 
BRANCH  52  53
ATOM     53  C   UNL     1      59.122  35.250 -28.755  1.00  0.00     0.115 C 
BRANCH  53  54
ATOM     54  N   UNL     1      60.170  35.424 -29.747  1.00  0.00    -0.363 N 
ATOM     55  H   UNL     1      60.968  35.975 -29.462  1.00  0.00     0.162 HD
BRANCH  54  56
ATOM     56  C   UNL     1      60.165  34.916 -31.030  1.00  0.00     0.166 C 
ATOM     57  S   UNL     1      60.837  35.653 -32.366  1.00  0.00    -0.041 S 
BRANCH  56  58
ATOM     58  N   UNL     1      59.422  33.754 -31.079  1.00  0.00    -0.362 N 
ATOM     59  H   UNL     1      58.471  33.836 -30.741  1.00  0.00     0.162 HD
BRANCH  58  60
ATOM     60  C   UNL     1      59.917  32.389 -31.271  1.00  0.00     0.127 C 
BRANCH  60  61
ATOM     61  C   UNL     1      61.407  32.288 -30.998  1.00  0.00     0.143 C 
BRANCH  61  62
ATOM     62  C   UNL     1      61.824  32.143 -29.553  1.00  0.00     0.305 C 
ATOM     63  O   UNL     1      62.977  31.869 -29.244  1.00  0.00    -0.252 OA
BRANCH  62  64
ATOM     64  O   UNL     1      60.887  32.375 -28.617  1.00  0.00    -0.481 OA
ATOM     65  H   UNL     1      61.030  31.946 -27.748  1.00  0.00     0.296 HD
ENDBRANCH  62  64
ENDBRANCH  61  62
ENDBRANCH  60  61
ENDBRANCH  58  60
ENDBRANCH  56  58
ENDBRANCH  54  56
ENDBRANCH  53  54
ENDBRANCH  52  53
ENDBRANCH  51  52
ENDBRANCH   1  51
TORSDOF 17
ENDMDL
MODEL 6
REMARK VINA RESULT:    -6.357      3.541     11.890
REMARK INTER + INTRA:         -23.194
REMARK INTER:                 -19.499
REMARK INTRA:                  -3.695
REMARK UNBOUND:                -4.387
REMARK SMILES [H]/N=C(\N)NCCCC[C@@H]1NC(=O)CCCCCCC(=O)NCCCCC[C@@H](C(N)=O)NC(=O)[C@@H](CCCCNC(=S)NCCC(=O)O)NC1=O
REMARK SMILES IDX 36 1 35 2 49 3 50 4 51 5 10 7 9 8 8 9 7 10 6 11 5 12 2 13
REMARK SMILES IDX 3 14 1 15 4 16 11 20 12 21 13 23 14 24 15 25 16 26 17 27
REMARK SMILES IDX 18 28 33 30 34 31 32 32 28 34 27 35 26 36 25 37 24 38 23 39
REMARK SMILES IDX 22 40 20 41 21 43 19 44 29 46 30 47 31 48 37 51 38 52 39 53
REMARK SMILES IDX 40 54 41 56 42 57 43 58 44 60 45 61 46 62 47 63 48 64
REMARK H PARENT 49 6 4 17 4 18 5 19 11 22 32 33 22 42 30 49 30 50 40 55 43 59
REMARK H PARENT 48 65
REMARK Flexibility Score: 80.00
ROOT
ATOM      1  C   UNL     1      52.520  38.711 -31.383  1.00  0.00     0.035 C 
ENDROOT
BRANCH   1   2
ATOM      2  C   UNL     1      52.569  39.257 -29.940  1.00  0.00     0.171 C 
BRANCH   2   3
ATOM      3  N   UNL     1      53.849  39.025 -29.185  1.00  0.00    -0.343 N 
ATOM      4  C   UNL     1      54.075  37.945 -28.386  1.00  0.00     0.243 C 
ATOM      5  O   UNL     1      53.095  37.478 -27.801  1.00  0.00    -0.273 OA
ATOM      6  H   UNL     1      54.067  39.881 -28.684  1.00  0.00     0.164 HD
BRANCH   4   7
ATOM      7  C   UNL     1      55.479  37.502 -27.813  1.00  0.00     0.171 C 
BRANCH   7   8
ATOM      8  C   UNL     1      55.690  36.041 -28.475  1.00  0.00     0.035 C 
BRANCH   8   9
ATOM      9  C   UNL     1      56.956  35.637 -29.365  1.00  0.00     0.004 C 
BRANCH   9  10
ATOM     10  C   UNL     1      58.321  36.009 -28.700  1.00  0.00     0.021 C 
BRANCH  10  11
ATOM     11  C   UNL     1      59.600  35.374 -29.308  1.00  0.00     0.116 C 
BRANCH  11  12
ATOM     12  N   UNL     1      59.899  34.074 -28.685  1.00  0.00    -0.357 N 
ATOM     13  N   UNL     1      59.537  31.820 -28.647  1.00  0.00    -0.270 NA
ATOM     14  C   UNL     1      59.988  32.865 -29.291  1.00  0.00     0.185 C 
ATOM     15  H   UNL     1      59.665  30.992 -29.264  1.00  0.00     0.191 HD
ATOM     16  N   UNL     1      60.589  32.833 -30.499  1.00  0.00    -0.370 N 
ATOM     17  H   UNL     1      60.903  31.888 -30.756  1.00  0.00     0.159 HD
ATOM     18  H   UNL     1      61.394  33.460 -30.519  1.00  0.00     0.159 HD
ATOM     19  H   UNL     1      59.411  33.964 -27.796  1.00  0.00     0.163 HD
ENDBRANCH  11  12
ENDBRANCH  10  11
ENDBRANCH   9  10
ENDBRANCH   8   9
ENDBRANCH   7   8
BRANCH   7  20
ATOM     20  N   UNL     1      56.105  37.564 -26.337  1.00  0.00    -0.344 N 
ATOM     21  C   UNL     1      55.689  38.276 -25.193  1.00  0.00     0.220 C 
ATOM     22  H   UNL     1      57.082  37.806 -26.438  1.00  0.00     0.164 HD
ATOM     23  O   UNL     1      54.696  39.005 -25.251  1.00  0.00    -0.275 OA
BRANCH  21  24
ATOM     24  C   UNL     1      56.424  38.079 -23.720  1.00  0.00     0.100 C 
BRANCH  24  25
ATOM     25  C   UNL     1      56.720  36.799 -22.851  1.00  0.00     0.010 C 
BRANCH  25  26
ATOM     26  C   UNL     1      57.357  37.055 -21.485  1.00  0.00     0.001 C 
BRANCH  26  27
ATOM     27  C   UNL     1      58.742  36.383 -21.259  1.00  0.00     0.001 C 
BRANCH  27  28
ATOM     28  C   UNL     1      58.571  35.732 -19.913  1.00  0.00     0.010 CG0
ATOM     29  G   UNL     1      59.476  35.726 -18.725  1.00  0.00     0.000 G0
ENDBRANCH  27  28
ENDBRANCH  26  27
ENDBRANCH  25  26
ENDBRANCH  24  25
ENDBRANCH  21  24
ENDBRANCH   7  20
ENDBRANCH   4   7
ENDBRANCH   2   3
BRANCH   2  30
ATOM     30  C   UNL     1      52.428  40.823 -29.881  1.00  0.00     0.243 C 
ATOM     31  O   UNL     1      52.294  41.407 -28.806  1.00  0.00    -0.273 OA
ATOM     32  N   UNL     1      52.778  41.501 -31.032  1.00  0.00    -0.343 N 
ATOM     33  H   UNL     1      52.707  41.058 -31.942  1.00  0.00     0.164 HD
BRANCH  32  34
ATOM     34  C   UNL     1      53.517  42.767 -31.015  1.00  0.00     0.171 C 
BRANCH  34  35
ATOM     35  C   UNL     1      54.926  42.597 -31.649  1.00  0.00     0.035 C 
BRANCH  35  36
ATOM     36  C   UNL     1      55.049  41.267 -32.402  1.00  0.00     0.003 C 
BRANCH  36  37
ATOM     37  C   UNL     1      55.179  41.331 -33.916  1.00  0.00     0.002 C 
BRANCH  37  38
ATOM     38  C   UNL     1      53.810  41.643 -34.598  1.00  0.00     0.021 C 
BRANCH  38  39
ATOM     39  C   UNL     1      53.805  43.067 -35.160  1.00  0.00     0.116 C 
BRANCH  39  40
ATOM     40  N   UNL     1      52.682  43.515 -36.001  1.00  0.00    -0.356 N 
ATOM     41  C   UNL     1      52.630  44.112 -37.246  1.00  0.00     0.219 C 
ATOM     42  H   UNL     1      51.767  43.538 -35.571  1.00  0.00     0.163 HD
ATOM     43  O   UNL     1      51.522  44.525 -37.616  1.00  0.00    -0.275 OA
BRANCH  41  44
ATOM     44  C   UNL     1      53.840  44.278 -38.217  1.00  0.00     0.100 CG0
ATOM     45  G   UNL     1      53.419  44.085 -39.637  1.00  0.00     0.000 G0
ENDBRANCH  41  44
ENDBRANCH  39  40
ENDBRANCH  38  39
ENDBRANCH  37  38
ENDBRANCH  36  37
ENDBRANCH  35  36
ENDBRANCH  34  35
BRANCH  34  46
ATOM     46  C   UNL     1      52.713  43.801 -31.803  1.00  0.00     0.240 C 
ATOM     47  N   UNL     1      51.539  43.364 -32.354  1.00  0.00    -0.368 N 
ATOM     48  O   UNL     1      53.040  44.986 -31.920  1.00  0.00    -0.273 OA
ATOM     49  H   UNL     1      51.284  42.394 -32.404  1.00  0.00     0.159 HD
ATOM     50  H   UNL     1      51.021  44.031 -32.909  1.00  0.00     0.159 HD
ENDBRANCH  34  46
ENDBRANCH  32  34
ENDBRANCH   2  30
ENDBRANCH   1   2
BRANCH   1  51
ATOM     51  C   UNL     1      53.558  37.663 -31.830  1.00  0.00     0.004 C 
BRANCH  51  52
ATOM     52  C   UNL     1      53.387  36.236 -31.289  1.00  0.00     0.021 C 
BRANCH  52  53
ATOM     53  C   UNL     1      52.758  35.366 -32.371  1.00  0.00     0.115 C 
BRANCH  53  54
ATOM     54  N   UNL     1      52.145  34.139 -31.890  1.00  0.00    -0.363 N 
ATOM     55  H   UNL     1      51.298  33.849 -32.359  1.00  0.00     0.162 HD
BRANCH  54  56
ATOM     56  C   UNL     1      52.609  33.351 -30.857  1.00  0.00     0.166 C 
ATOM     57  S   UNL     1      54.165  32.773 -30.702  1.00  0.00    -0.041 S 
BRANCH  56  58
ATOM     58  N   UNL     1      51.569  33.009 -30.016  1.00  0.00    -0.362 N 
ATOM     59  H   UNL     1      51.496  32.023 -29.800  1.00  0.00     0.162 HD
BRANCH  58  60
ATOM     60  C   UNL     1      50.415  33.832 -29.650  1.00  0.00     0.127 C 
BRANCH  60  61
ATOM     61  C   UNL     1      50.805  34.969 -28.723  1.00  0.00     0.143 C 
BRANCH  61  62
ATOM     62  C   UNL     1      51.243  34.588 -27.328  1.00  0.00     0.305 C 
ATOM     63  O   UNL     1      51.317  33.416 -26.978  1.00  0.00    -0.252 OA
BRANCH  62  64
ATOM     64  O   UNL     1      51.595  35.587 -26.499  1.00  0.00    -0.481 OA
ATOM     65  H   UNL     1      51.430  35.434 -25.546  1.00  0.00     0.296 HD
ENDBRANCH  62  64
ENDBRANCH  61  62
ENDBRANCH  60  61
ENDBRANCH  58  60
ENDBRANCH  56  58
ENDBRANCH  54  56
ENDBRANCH  53  54
ENDBRANCH  52  53
ENDBRANCH  51  52
ENDBRANCH   1  51
TORSDOF 17
ENDMDL
MODEL 7
REMARK VINA RESULT:    -6.220      2.516      5.469
REMARK INTER + INTRA:         -22.788
REMARK INTER:                 -19.612
REMARK INTRA:                  -3.176
REMARK UNBOUND:                -4.387
REMARK SMILES [H]/N=C(\N)NCCCC[C@@H]1NC(=O)CCCCCCC(=O)NCCCCC[C@@H](C(N)=O)NC(=O)[C@@H](CCCCNC(=S)NCCC(=O)O)NC1=O
REMARK SMILES IDX 36 1 35 2 49 3 50 4 51 5 10 7 9 8 8 9 7 10 6 11 5 12 2 13
REMARK SMILES IDX 3 14 1 15 4 16 11 20 12 21 13 23 14 24 15 25 16 26 17 27
REMARK SMILES IDX 18 28 33 30 34 31 32 32 28 34 27 35 26 36 25 37 24 38 23 39
REMARK SMILES IDX 22 40 20 41 21 43 19 44 29 46 30 47 31 48 37 51 38 52 39 53
REMARK SMILES IDX 40 54 41 56 42 57 43 58 44 60 45 61 46 62 47 63 48 64
REMARK H PARENT 49 6 4 17 4 18 5 19 11 22 32 33 22 42 30 49 30 50 40 55 43 59
REMARK H PARENT 48 65
REMARK Flexibility Score: 80.00
ROOT
ATOM      1  C   UNL     1      53.283  36.324 -26.293  1.00  0.00     0.035 C 
ENDROOT
BRANCH   1   2
ATOM      2  C   UNL     1      54.590  37.143 -26.381  1.00  0.00     0.171 C 
BRANCH   2   3
ATOM      3  N   UNL     1      54.552  38.361 -27.263  1.00  0.00    -0.343 N 
ATOM      4  C   UNL     1      55.010  38.386 -28.544  1.00  0.00     0.243 C 
ATOM      5  O   UNL     1      55.967  37.652 -28.803  1.00  0.00    -0.273 OA
ATOM      6  H   UNL     1      54.950  39.131 -26.734  1.00  0.00     0.164 HD
BRANCH   4   7
ATOM      7  C   UNL     1      54.733  39.530 -29.599  1.00  0.00     0.171 C 
BRANCH   7   8
ATOM      8  C   UNL     1      53.179  39.895 -29.329  1.00  0.00     0.035 C 
BRANCH   8   9
ATOM      9  C   UNL     1      52.552  41.351 -29.543  1.00  0.00     0.004 C 
BRANCH   9  10
ATOM     10  C   UNL     1      52.044  41.595 -31.000  1.00  0.00     0.021 C 
BRANCH  10  11
ATOM     11  C   UNL     1      51.164  42.851 -31.241  1.00  0.00     0.116 C 
BRANCH  11  12
ATOM     12  N   UNL     1      51.751  44.043 -30.609  1.00  0.00    -0.357 N 
ATOM     13  N   UNL     1      52.669  46.118 -30.872  1.00  0.00    -0.270 NA
ATOM     14  C   UNL     1      51.629  45.335 -31.001  1.00  0.00     0.185 C 
ATOM     15  H   UNL     1      52.403  47.054 -31.239  1.00  0.00     0.191 HD
ATOM     16  N   UNL     1      50.415  45.723 -31.446  1.00  0.00    -0.370 N 
ATOM     17  H   UNL     1      50.298  46.745 -31.427  1.00  0.00     0.159 HD
ATOM     18  H   UNL     1      49.673  45.301 -30.887  1.00  0.00     0.159 HD
ATOM     19  H   UNL     1      52.713  43.876 -30.315  1.00  0.00     0.163 HD
ENDBRANCH  11  12
ENDBRANCH  10  11
ENDBRANCH   9  10
ENDBRANCH   8   9
ENDBRANCH   7   8
BRANCH   7  20
ATOM     20  N   UNL     1      55.099  39.670 -31.154  1.00  0.00    -0.344 N 
ATOM     21  C   UNL     1      55.499  40.794 -31.905  1.00  0.00     0.220 C 
ATOM     22  H   UNL     1      54.324  39.285 -31.678  1.00  0.00     0.164 HD
ATOM     23  O   UNL     1      55.600  41.894 -31.357  1.00  0.00    -0.275 OA
BRANCH  21  24
ATOM     24  C   UNL     1      55.961  40.672 -33.493  1.00  0.00     0.100 C 
BRANCH  24  25
ATOM     25  C   UNL     1      55.748  41.623 -34.730  1.00  0.00     0.010 C 
BRANCH  25  26
ATOM     26  C   UNL     1      55.908  43.118 -34.455  1.00  0.00     0.001 C 
BRANCH  26  27
ATOM     27  C   UNL     1      54.709  44.008 -34.892  1.00  0.00     0.001 C 
BRANCH  27  28
ATOM     28  C   UNL     1      53.801  43.939 -33.694  1.00  0.00     0.010 CG0
ATOM     29  G   UNL     1      52.488  44.603 -33.441  1.00  0.00     0.000 G0
ENDBRANCH  27  28
ENDBRANCH  26  27
ENDBRANCH  25  26
ENDBRANCH  24  25
ENDBRANCH  21  24
ENDBRANCH   7  20
ENDBRANCH   4   7
ENDBRANCH   2   3
BRANCH   2  30
ATOM     30  C   UNL     1      55.018  37.749 -24.994  1.00  0.00     0.243 C 
ATOM     31  O   UNL     1      54.178  38.190 -24.210  1.00  0.00    -0.273 OA
ATOM     32  N   UNL     1      56.307  37.469 -24.589  1.00  0.00    -0.343 N 
ATOM     33  H   UNL     1      57.040  37.286 -25.265  1.00  0.00     0.164 HD
BRANCH  32  34
ATOM     34  C   UNL     1      56.652  37.147 -23.200  1.00  0.00     0.171 C 
BRANCH  34  35
ATOM     35  C   UNL     1      58.152  36.762 -23.074  1.00  0.00     0.035 C 
BRANCH  35  36
ATOM     36  C   UNL     1      58.379  35.735 -21.958  1.00  0.00     0.003 C 
BRANCH  36  37
ATOM     37  C   UNL     1      59.052  36.225 -20.686  1.00  0.00     0.002 C 
BRANCH  37  38
ATOM     38  C   UNL     1      60.547  35.780 -20.617  1.00  0.00     0.021 C 
BRANCH  38  39
ATOM     39  C   UNL     1      61.227  36.377 -19.383  1.00  0.00     0.116 C 
BRANCH  39  40
ATOM     40  N   UNL     1      60.469  36.516 -18.128  1.00  0.00    -0.356 N 
ATOM     41  C   UNL     1      60.253  35.656 -17.069  1.00  0.00     0.219 C 
ATOM     42  H   UNL     1      59.863  37.322 -18.046  1.00  0.00     0.163 HD
ATOM     43  O   UNL     1      59.418  36.014 -16.226  1.00  0.00    -0.275 OA
BRANCH  41  44
ATOM     44  C   UNL     1      60.990  34.300 -16.844  1.00  0.00     0.100 CG0
ATOM     45  G   UNL     1      62.416  34.385 -17.281  1.00  0.00     0.000 G0
ENDBRANCH  41  44
ENDBRANCH  39  40
ENDBRANCH  38  39
ENDBRANCH  37  38
ENDBRANCH  36  37
ENDBRANCH  35  36
ENDBRANCH  34  35
BRANCH  34  46
ATOM     46  C   UNL     1      56.355  38.374 -22.337  1.00  0.00     0.240 C 
ATOM     47  N   UNL     1      55.293  38.270 -21.480  1.00  0.00    -0.368 N 
ATOM     48  O   UNL     1      57.038  39.402 -22.342  1.00  0.00    -0.273 OA
ATOM     49  H   UNL     1      54.628  37.518 -21.520  1.00  0.00     0.159 HD
ATOM     50  H   UNL     1      55.066  39.089 -20.935  1.00  0.00     0.159 HD
ENDBRANCH  34  46
ENDBRANCH  32  34
ENDBRANCH   2  30
ENDBRANCH   1   2
BRANCH   1  51
ATOM     51  C   UNL     1      52.720  35.659 -27.564  1.00  0.00     0.004 C 
BRANCH  51  52
ATOM     52  C   UNL     1      51.496  34.748 -27.392  1.00  0.00     0.021 C 
BRANCH  52  53
ATOM     53  C   UNL     1      51.074  34.219 -28.758  1.00  0.00     0.115 C 
BRANCH  53  54
ATOM     54  N   UNL     1      51.950  33.205 -29.320  1.00  0.00    -0.363 N 
ATOM     55  H   UNL     1      52.023  32.341 -28.801  1.00  0.00     0.162 HD
BRANCH  54  56
ATOM     56  C   UNL     1      52.688  33.322 -30.480  1.00  0.00     0.166 C 
ATOM     57  S   UNL     1      54.188  32.645 -30.747  1.00  0.00    -0.041 S 
BRANCH  56  58
ATOM     58  N   UNL     1      52.059  34.181 -31.359  1.00  0.00    -0.362 N 
ATOM     59  H   UNL     1      51.048  34.120 -31.372  1.00  0.00     0.162 HD
BRANCH  58  60
ATOM     60  C   UNL     1      52.670  34.932 -32.458  1.00  0.00     0.127 C 
BRANCH  60  61
ATOM     61  C   UNL     1      53.416  36.156 -31.956  1.00  0.00     0.143 C 
BRANCH  61  62
ATOM     62  C   UNL     1      52.590  37.391 -31.685  1.00  0.00     0.305 C 
ATOM     63  O   UNL     1      52.708  38.402 -32.367  1.00  0.00    -0.252 OA
BRANCH  62  64
ATOM     64  O   UNL     1      51.685  37.320 -30.694  1.00  0.00    -0.481 OA
ATOM     65  H   UNL     1      50.791  37.661 -30.901  1.00  0.00     0.296 HD
ENDBRANCH  62  64
ENDBRANCH  61  62
ENDBRANCH  60  61
ENDBRANCH  58  60
ENDBRANCH  56  58
ENDBRANCH  54  56
ENDBRANCH  53  54
ENDBRANCH  52  53
ENDBRANCH  51  52
ENDBRANCH   1  51
TORSDOF 17
ENDMDL
MODEL 8
REMARK VINA RESULT:    -6.195      3.769     11.360
REMARK INTER + INTRA:         -22.715
REMARK INTER:                 -19.434
REMARK INTRA:                  -3.281
REMARK UNBOUND:                -4.387
REMARK SMILES [H]/N=C(\N)NCCCC[C@@H]1NC(=O)CCCCCCC(=O)NCCCCC[C@@H](C(N)=O)NC(=O)[C@@H](CCCCNC(=S)NCCC(=O)O)NC1=O
REMARK SMILES IDX 36 1 35 2 49 3 50 4 51 5 10 7 9 8 8 9 7 10 6 11 5 12 2 13
REMARK SMILES IDX 3 14 1 15 4 16 11 20 12 21 13 23 14 24 15 25 16 26 17 27
REMARK SMILES IDX 18 28 33 30 34 31 32 32 28 34 27 35 26 36 25 37 24 38 23 39
REMARK SMILES IDX 22 40 20 41 21 43 19 44 29 46 30 47 31 48 37 51 38 52 39 53
REMARK SMILES IDX 40 54 41 56 42 57 43 58 44 60 45 61 46 62 47 63 48 64
REMARK H PARENT 49 6 4 17 4 18 5 19 11 22 32 33 22 42 30 49 30 50 40 55 43 59
REMARK H PARENT 48 65
REMARK Flexibility Score: 80.00
ROOT
ATOM      1  C   UNL     1      55.474  39.052 -30.692  1.00  0.00     0.035 C 
ENDROOT
BRANCH   1   2
ATOM      2  C   UNL     1      53.991  38.735 -30.399  1.00  0.00     0.171 C 
BRANCH   2   3
ATOM      3  N   UNL     1      53.706  38.030 -29.101  1.00  0.00    -0.343 N 
ATOM      4  C   UNL     1      52.957  36.898 -29.001  1.00  0.00     0.243 C 
ATOM      5  O   UNL     1      52.039  36.769 -29.814  1.00  0.00    -0.273 OA
ATOM      6  H   UNL     1      53.375  38.727 -28.442  1.00  0.00     0.164 HD
BRANCH   4   7
ATOM      7  C   UNL     1      52.870  35.962 -27.730  1.00  0.00     0.171 C 
BRANCH   7   8
ATOM      8  C   UNL     1      51.419  35.264 -27.900  1.00  0.00     0.035 C 
BRANCH   8   9
ATOM      9  C   UNL     1      51.197  33.795 -28.492  1.00  0.00     0.004 C 
BRANCH   9  10
ATOM     10  C   UNL     1      50.225  33.763 -29.715  1.00  0.00     0.021 C 
BRANCH  10  11
ATOM     11  C   UNL     1      50.610  32.840 -30.901  1.00  0.00     0.116 C 
BRANCH  11  12
ATOM     12  N   UNL     1      51.254  33.601 -31.983  1.00  0.00    -0.357 N 
ATOM     13  N   UNL     1      52.667  35.292 -32.581  1.00  0.00    -0.270 NA
ATOM     14  C   UNL     1      52.500  34.137 -31.993  1.00  0.00     0.185 C 
ATOM     15  H   UNL     1      53.668  35.557 -32.473  1.00  0.00     0.191 HD
ATOM     16  N   UNL     1      53.483  33.400 -31.435  1.00  0.00    -0.370 N 
ATOM     17  H   UNL     1      54.419  33.696 -31.743  1.00  0.00     0.159 HD
ATOM     18  H   UNL     1      53.365  32.411 -31.659  1.00  0.00     0.159 HD
ATOM     19  H   UNL     1      50.607  34.261 -32.414  1.00  0.00     0.163 HD
ENDBRANCH  11  12
ENDBRANCH  10  11
ENDBRANCH   9  10
ENDBRANCH   8   9
ENDBRANCH   7   8
BRANCH   7  20
ATOM     20  N   UNL     1      53.213  36.214 -26.184  1.00  0.00    -0.344 N 
ATOM     21  C   UNL     1      54.158  37.071 -25.582  1.00  0.00     0.220 C 
ATOM     22  H   UNL     1      53.397  35.311 -25.768  1.00  0.00     0.164 HD
ATOM     23  O   UNL     1      54.891  37.768 -26.287  1.00  0.00    -0.275 OA
BRANCH  21  24
ATOM     24  C   UNL     1      54.244  37.268 -23.938  1.00  0.00     0.100 C 
BRANCH  24  25
ATOM     25  C   UNL     1      55.435  37.650 -22.982  1.00  0.00     0.010 C 
BRANCH  25  26
ATOM     26  C   UNL     1      56.833  37.281 -23.480  1.00  0.00     0.001 C 
BRANCH  26  27
ATOM     27  C   UNL     1      57.811  36.753 -22.391  1.00  0.00     0.001 C 
BRANCH  27  28
ATOM     28  C   UNL     1      57.063  37.039 -21.117  1.00  0.00     0.010 CG0
ATOM     29  G   UNL     1      57.575  37.325 -19.743  1.00  0.00     0.000 G0
ENDBRANCH  27  28
ENDBRANCH  26  27
ENDBRANCH  25  26
ENDBRANCH  24  25
ENDBRANCH  21  24
ENDBRANCH   7  20
ENDBRANCH   4   7
ENDBRANCH   2   3
BRANCH   2  30
ATOM     30  C   UNL     1      53.110  40.033 -30.272  1.00  0.00     0.243 C 
ATOM     31  O   UNL     1      52.637  40.373 -29.188  1.00  0.00    -0.273 OA
ATOM     32  N   UNL     1      53.170  40.906 -31.339  1.00  0.00    -0.343 N 
ATOM     33  H   UNL     1      53.385  40.576 -32.274  1.00  0.00     0.164 HD
BRANCH  32  34
ATOM     34  C   UNL     1      53.206  42.363 -31.174  1.00  0.00     0.171 C 
BRANCH  34  35
ATOM     35  C   UNL     1      54.312  42.996 -32.063  1.00  0.00     0.035 C 
BRANCH  35  36
ATOM     36  C   UNL     1      55.168  41.925 -32.749  1.00  0.00     0.003 C 
BRANCH  36  37
ATOM     37  C   UNL     1      55.081  41.827 -34.264  1.00  0.00     0.002 C 
BRANCH  37  38
ATOM     38  C   UNL     1      53.639  42.133 -34.778  1.00  0.00     0.021 C 
BRANCH  38  39
ATOM     39  C   UNL     1      53.612  43.461 -35.540  1.00  0.00     0.116 C 
BRANCH  39  40
ATOM     40  N   UNL     1      52.435  43.812 -36.352  1.00  0.00    -0.356 N 
ATOM     41  C   UNL     1      52.300  44.268 -37.649  1.00  0.00     0.219 C 
ATOM     42  H   UNL     1      51.549  43.884 -35.869  1.00  0.00     0.163 HD
ATOM     43  O   UNL     1      51.168  44.637 -37.991  1.00  0.00    -0.275 OA
BRANCH  41  44
ATOM     44  C   UNL     1      53.444  44.324 -38.708  1.00  0.00     0.100 CG0
ATOM     45  G   UNL     1      53.131  45.311 -39.784  1.00  0.00     0.000 G0
ENDBRANCH  41  44
ENDBRANCH  39  40
ENDBRANCH  38  39
ENDBRANCH  37  38
ENDBRANCH  36  37
ENDBRANCH  35  36
ENDBRANCH  34  35
BRANCH  34  46
ATOM     46  C   UNL     1      51.839  42.923 -31.566  1.00  0.00     0.240 C 
ATOM     47  N   UNL     1      51.845  44.030 -32.371  1.00  0.00    -0.368 N 
ATOM     48  O   UNL     1      50.765  42.410 -31.241  1.00  0.00    -0.273 OA
ATOM     49  H   UNL     1      52.674  44.565 -32.562  1.00  0.00     0.159 HD
ATOM     50  H   UNL     1      50.947  44.430 -32.602  1.00  0.00     0.159 HD
ENDBRANCH  34  46
ENDBRANCH  32  34
ENDBRANCH   2  30
ENDBRANCH   1   2
BRANCH   1  51
ATOM     51  C   UNL     1      56.517  38.888 -29.570  1.00  0.00     0.004 C 
BRANCH  51  52
ATOM     52  C   UNL     1      57.726  37.988 -29.867  1.00  0.00     0.021 C 
BRANCH  52  53
ATOM     53  C   UNL     1      57.466  36.600 -29.293  1.00  0.00     0.115 C 
BRANCH  53  54
ATOM     54  N   UNL     1      58.412  36.171 -28.277  1.00  0.00    -0.363 N 
ATOM     55  H   UNL     1      58.024  35.945 -27.372  1.00  0.00     0.162 HD
BRANCH  54  56
ATOM     56  C   UNL     1      59.778  36.057 -28.436  1.00  0.00     0.166 C 
ATOM     57  S   UNL     1      60.925  36.457 -27.293  1.00  0.00    -0.041 S 
BRANCH  56  58
ATOM     58  N   UNL     1      60.075  35.669 -29.727  1.00  0.00    -0.362 N 
ATOM     59  H   UNL     1      59.882  36.361 -30.441  1.00  0.00     0.162 HD
BRANCH  58  60
ATOM     60  C   UNL     1      60.346  34.312 -30.207  1.00  0.00     0.127 C 
BRANCH  60  61
ATOM     61  C   UNL     1      59.855  34.109 -31.630  1.00  0.00     0.143 C 
BRANCH  61  62
ATOM     62  C   UNL     1      60.169  32.779 -32.274  1.00  0.00     0.305 C 
ATOM     63  O   UNL     1      60.168  32.641 -33.491  1.00  0.00    -0.252 OA
BRANCH  62  64
ATOM     64  O   UNL     1      60.497  31.763 -31.456  1.00  0.00    -0.481 OA
ATOM     65  H   UNL     1      60.524  31.971 -30.499  1.00  0.00     0.296 HD
ENDBRANCH  62  64
ENDBRANCH  61  62
ENDBRANCH  60  61
ENDBRANCH  58  60
ENDBRANCH  56  58
ENDBRANCH  54  56
ENDBRANCH  53  54
ENDBRANCH  52  53
ENDBRANCH  51  52
ENDBRANCH   1  51
TORSDOF 17
ENDMDL
MODEL 9
REMARK VINA RESULT:    -6.191      4.022      8.579
REMARK INTER + INTRA:         -22.702
REMARK INTER:                 -19.304
REMARK INTRA:                  -3.398
REMARK UNBOUND:                -4.387
REMARK SMILES [H]/N=C(\N)NCCCC[C@@H]1NC(=O)CCCCCCC(=O)NCCCCC[C@@H](C(N)=O)NC(=O)[C@@H](CCCCNC(=S)NCCC(=O)O)NC1=O
REMARK SMILES IDX 36 1 35 2 49 3 50 4 51 5 10 7 9 8 8 9 7 10 6 11 5 12 2 13
REMARK SMILES IDX 3 14 1 15 4 16 11 20 12 21 13 23 14 24 15 25 16 26 17 27
REMARK SMILES IDX 18 28 33 30 34 31 32 32 28 34 27 35 26 36 25 37 24 38 23 39
REMARK SMILES IDX 22 40 20 41 21 43 19 44 29 46 30 47 31 48 37 51 38 52 39 53
REMARK SMILES IDX 40 54 41 56 42 57 43 58 44 60 45 61 46 62 47 63 48 64
REMARK H PARENT 49 6 4 17 4 18 5 19 11 22 32 33 22 42 30 49 30 50 40 55 43 59
REMARK H PARENT 48 65
REMARK Flexibility Score: 80.00
ROOT
ATOM      1  C   UNL     1      53.410  37.496 -28.570  1.00  0.00     0.035 C 
ENDROOT
BRANCH   1   2
ATOM      2  C   UNL     1      52.494  37.890 -29.749  1.00  0.00     0.171 C 
BRANCH   2   3
ATOM      3  N   UNL     1      52.931  39.078 -30.562  1.00  0.00    -0.343 N 
ATOM      4  C   UNL     1      52.575  40.362 -30.283  1.00  0.00     0.243 C 
ATOM      5  O   UNL     1      51.465  40.528 -29.772  1.00  0.00    -0.273 OA
ATOM      6  H   UNL     1      52.741  38.867 -31.537  1.00  0.00     0.164 HD
BRANCH   4   7
ATOM      7  C   UNL     1      53.230  41.656 -30.910  1.00  0.00     0.171 C 
BRANCH   7   8
ATOM      8  C   UNL     1      54.814  41.382 -30.721  1.00  0.00     0.035 C 
BRANCH   8   9
ATOM      9  C   UNL     1      55.897  41.555 -31.886  1.00  0.00     0.004 C 
BRANCH   9  10
ATOM     10  C   UNL     1      55.991  43.018 -32.427  1.00  0.00     0.021 C 
BRANCH  10  11
ATOM     11  C   UNL     1      55.945  43.206 -33.968  1.00  0.00     0.116 C 
BRANCH  11  12
ATOM     12  N   UNL     1      55.007  42.260 -34.592  1.00  0.00    -0.357 N 
ATOM     13  N   UNL     1      53.042  41.107 -34.449  1.00  0.00    -0.270 NA
ATOM     14  C   UNL     1      53.654  42.261 -34.515  1.00  0.00     0.185 C 
ATOM     15  H   UNL     1      52.022  41.297 -34.373  1.00  0.00     0.191 HD
ATOM     16  N   UNL     1      53.042  43.462 -34.565  1.00  0.00    -0.370 N 
ATOM     17  H   UNL     1      52.047  43.386 -34.815  1.00  0.00     0.159 HD
ATOM     18  H   UNL     1      53.501  44.073 -35.241  1.00  0.00     0.159 HD
ATOM     19  H   UNL     1      55.342  41.300 -34.524  1.00  0.00     0.163 HD
ENDBRANCH  11  12
ENDBRANCH  10  11
ENDBRANCH   9  10
ENDBRANCH   8   9
ENDBRANCH   7   8
BRANCH   7  20
ATOM     20  N   UNL     1      52.891  43.216 -30.755  1.00  0.00    -0.344 N 
ATOM     21  C   UNL     1      51.826  43.980 -31.277  1.00  0.00     0.220 C 
ATOM     22  H   UNL     1      53.719  43.729 -31.024  1.00  0.00     0.164 HD
ATOM     23  O   UNL     1      50.977  43.441 -31.991  1.00  0.00    -0.275 OA
BRANCH  21  24
ATOM     24  C   UNL     1      51.602  45.570 -30.868  1.00  0.00     0.100 C 
BRANCH  24  25
ATOM     25  C   UNL     1      50.692  46.700 -31.481  1.00  0.00     0.010 C 
BRANCH  25  26
ATOM     26  C   UNL     1      49.298  46.839 -30.866  1.00  0.00     0.001 C 
BRANCH  26  27
ATOM     27  C   UNL     1      48.975  48.233 -30.257  1.00  0.00     0.001 C 
BRANCH  27  28
ATOM     28  C   UNL     1      49.697  49.169 -31.188  1.00  0.00     0.010 CG0
ATOM     29  G   UNL     1      51.158  49.435 -31.344  1.00  0.00     0.000 G0
ENDBRANCH  27  28
ENDBRANCH  26  27
ENDBRANCH  25  26
ENDBRANCH  24  25
ENDBRANCH  21  24
ENDBRANCH   7  20
ENDBRANCH   4   7
ENDBRANCH   2   3
BRANCH   2  30
ATOM     30  C   UNL     1      52.393  36.761 -30.839  1.00  0.00     0.243 C 
ATOM     31  O   UNL     1      52.864  36.923 -31.965  1.00  0.00    -0.273 OA
ATOM     32  N   UNL     1      52.048  35.508 -30.375  1.00  0.00    -0.343 N 
ATOM     33  H   UNL     1      51.493  35.396 -29.533  1.00  0.00     0.164 HD
BRANCH  32  34
ATOM     34  C   UNL     1      52.663  34.276 -30.880  1.00  0.00     0.171 C 
BRANCH  34  35
ATOM     35  C   UNL     1      53.730  33.740 -29.886  1.00  0.00     0.035 C 
BRANCH  35  36
ATOM     36  C   UNL     1      55.110  34.352 -30.156  1.00  0.00     0.003 C 
BRANCH  36  37
ATOM     37  C   UNL     1      56.244  33.395 -30.491  1.00  0.00     0.002 C 
BRANCH  37  38
ATOM     38  C   UNL     1      57.632  33.983 -30.083  1.00  0.00     0.021 C 
BRANCH  38  39
ATOM     39  C   UNL     1      58.727  32.924 -30.236  1.00  0.00     0.116 C 
BRANCH  39  40
ATOM     40  N   UNL     1      58.659  31.685 -29.445  1.00  0.00    -0.356 N 
ATOM     41  C   UNL     1      59.095  30.397 -29.690  1.00  0.00     0.219 C 
ATOM     42  H   UNL     1      58.069  31.696 -28.623  1.00  0.00     0.163 HD
ATOM     43  O   UNL     1      58.733  29.527 -28.886  1.00  0.00    -0.275 OA
BRANCH  41  44
ATOM     44  C   UNL     1      60.018  29.968 -30.872  1.00  0.00     0.100 CG0
ATOM     45  G   UNL     1      59.800  28.535 -31.231  1.00  0.00     0.000 G0
ENDBRANCH  41  44
ENDBRANCH  39  40
ENDBRANCH  38  39
ENDBRANCH  37  38
ENDBRANCH  36  37
ENDBRANCH  35  36
ENDBRANCH  34  35
BRANCH  34  46
ATOM     46  C   UNL     1      51.560  33.234 -31.071  1.00  0.00     0.240 C 
ATOM     47  N   UNL     1      50.765  33.389 -32.174  1.00  0.00    -0.368 N 
ATOM     48  O   UNL     1      51.392  32.263 -30.328  1.00  0.00    -0.273 OA
ATOM     49  H   UNL     1      50.767  34.219 -32.740  1.00  0.00     0.159 HD
ATOM     50  H   UNL     1      50.009  32.728 -32.288  1.00  0.00     0.159 HD
ENDBRANCH  34  46
ENDBRANCH  32  34
ENDBRANCH   2  30
ENDBRANCH   1   2
BRANCH   1  51
ATOM     51  C   UNL     1      54.653  38.354 -28.259  1.00  0.00     0.004 C 
BRANCH  51  52
ATOM     52  C   UNL     1      55.973  37.938 -28.926  1.00  0.00     0.021 C 
BRANCH  52  53
ATOM     53  C   UNL     1      56.895  37.338 -27.872  1.00  0.00     0.115 C 
BRANCH  53  54
ATOM     54  N   UNL     1      56.266  37.067 -26.590  1.00  0.00    -0.363 N 
ATOM     55  H   UNL     1      55.437  36.490 -26.612  1.00  0.00     0.162 HD
BRANCH  54  56
ATOM     56  C   UNL     1      56.692  37.533 -25.363  1.00  0.00     0.166 C 
ATOM     57  S   UNL     1      58.266  37.516 -24.813  1.00  0.00    -0.041 S 
BRANCH  56  58
ATOM     58  N   UNL     1      55.609  37.917 -24.598  1.00  0.00    -0.362 N 
ATOM     59  H   UNL     1      55.395  38.906 -24.619  1.00  0.00     0.162 HD
BRANCH  58  60
ATOM     60  C   UNL     1      54.937  37.138 -23.555  1.00  0.00     0.127 C 
BRANCH  60  61
ATOM     61  C   UNL     1      55.035  37.812 -22.198  1.00  0.00     0.143 C 
BRANCH  61  62
ATOM     62  C   UNL     1      56.365  37.718 -21.488  1.00  0.00     0.305 C 
ATOM     63  O   UNL     1      57.168  38.643 -21.506  1.00  0.00    -0.252 OA
BRANCH  62  64
ATOM     64  O   UNL     1      56.613  36.593 -20.794  1.00  0.00    -0.481 OA
ATOM     65  H   UNL     1      56.375  36.612 -19.844  1.00  0.00     0.296 HD
ENDBRANCH  62  64
ENDBRANCH  61  62
ENDBRANCH  60  61
ENDBRANCH  58  60
ENDBRANCH  56  58
ENDBRANCH  54  56
ENDBRANCH  53  54
ENDBRANCH  52  53
ENDBRANCH  51  52
ENDBRANCH   1  51
TORSDOF 17
ENDMDL
