MODEL 1
REMARK VINA RESULT:    -8.309      0.000      0.000
REMARK INTER + INTRA:           2.823
REMARK INTER:                 -17.781
REMARK INTRA:                  20.604
REMARK UNBOUND:                20.604
REMARK SMILES O=C(O)CCNC(=S)NCCCC[C@H](NS(=O)(=O)c1cccc(F)c1)C(=O)N[C@@H](Cc1c[nH]c2ccccc12)C(=O)NC1CCC1
REMARK SMILES IDX 11 1 12 2 13 3 14 4 15 5 16 7 17 8 18 9 19 10 20 11 25 12
REMARK SMILES IDX 21 13 23 14 22 15 24 16 26 17 27 18 28 19 29 21 40 22 41 23
REMARK SMILES IDX 42 24 43 26 44 27 46 28 45 29 30 30 31 31 39 32 32 33 34 34
REMARK SMILES IDX 38 35 33 36 35 37 37 38 36 40 10 41 9 42 7 44 8 45 6 46 5 48
REMARK SMILES IDX 4 49 2 50 1 51 3 52
REMARK H PARENT 15 6 28 20 42 25 33 39 9 43 6 47 3 53
REMARK Flexibility Score: inf
ROOT
ATOM      1  C   UNL     1      36.562  -6.343  36.595  1.00  0.00     0.021 C 
ENDROOT
BRANCH   1   2
ATOM      2  C   UNL     1      37.030  -6.235  35.718  1.00  0.00     0.004 C 
BRANCH   2   3
ATOM      3  C   UNL     1      36.538  -6.410  34.864  1.00  0.00     0.030 C 
BRANCH   3   4
ATOM      4  C   UNL     1      37.018  -6.354  33.990  1.00  0.00     0.159 C 
BRANCH   4   5
ATOM      5  N   UNL     1      37.377  -7.183  33.561  1.00  0.00    -0.199 NA
ATOM      6  H   UNL     1      37.962  -7.360  33.668  1.00  0.00     0.142 HD
BRANCH   5   7
ATOM      7  S   UNL     1      36.793  -7.727  32.959  1.00  0.00     0.241 S 
ATOM      8  O   UNL     1      36.221  -7.978  33.740  1.00  0.00    -0.207 OA
ATOM      9  O   UNL     1      37.365  -7.477  32.178  1.00  0.00    -0.207 OA
BRANCH   7  10
ATOM     10  C   UNL     1      36.209  -8.272  32.358  1.00  0.00     0.085 A 
ATOM     11  C   UNL     1      36.377  -9.252  32.251  1.00  0.00     0.022 A 
ATOM     12  C   UNL     1      35.457  -7.838  31.862  1.00  0.00     0.061 A 
ATOM     13  C   UNL     1      35.793  -9.798  31.650  1.00  0.00     0.004 A 
ATOM     14  C   UNL     1      34.873  -8.382  31.261  1.00  0.00     0.124 A 
ATOM     15  C   UNL     1      35.041  -9.363  31.154  1.00  0.00     0.039 A 
ATOM     16  F   UNL     1      34.121  -7.947  30.765  1.00  0.00    -0.207 F 
ENDBRANCH   7  10
ENDBRANCH   5   7
ENDBRANCH   4   5
BRANCH   4  17
ATOM     17  C   UNL     1      37.140  -5.468  33.542  1.00  0.00     0.238 C 
ATOM     18  O   UNL     1      38.055  -5.158  33.285  1.00  0.00    -0.273 OA
ATOM     19  N   UNL     1      36.346  -4.890  33.352  1.00  0.00    -0.343 N 
ATOM     20  H   UNL     1      35.778  -5.082  33.512  1.00  0.00     0.164 HD
BRANCH  19  21
ATOM     21  C   UNL     1      36.467  -4.004  32.905  1.00  0.00     0.175 C 
BRANCH  21  22
ATOM     22  C   UNL     1      36.527  -3.172  33.455  1.00  0.00     0.243 C 
ATOM     23  O   UNL     1      35.896  -3.030  34.218  1.00  0.00    -0.273 OA
ATOM     24  N   UNL     1      37.217  -2.479  33.242  1.00  0.00    -0.352 N 
ATOM     25  H   UNL     1      37.607  -2.567  32.770  1.00  0.00     0.163 HD
BRANCH  24  26
ATOM     26  C   UNL     1      37.276  -1.646  33.793  1.00  0.00     0.082 C 
ATOM     27  C   UNL     1      37.584  -1.431  34.719  1.00  0.00     0.025 C 
ATOM     28  C   UNL     1      37.050  -0.683  33.645  1.00  0.00     0.025 C 
ATOM     29  C   UNL     1      37.358  -0.468  34.571  1.00  0.00     0.004 C 
ENDBRANCH  24  26
ENDBRANCH  21  22
BRANCH  21  30
ATOM     30  C   UNL     1      36.530  -3.952  31.909  1.00  0.00     0.072 C 
BRANCH  30  31
ATOM     31  C   UNL     1      35.722  -4.133  31.347  1.00  0.00    -0.020 A 
ATOM     32  C   UNL     1      35.712  -4.618  30.479  1.00  0.00     0.003 A 
ATOM     33  C   UNL     1      34.790  -3.859  31.559  1.00  0.00     0.087 A 
ATOM     34  C   UNL     1      34.767  -4.643  30.153  1.00  0.00     0.046 A 
ATOM     35  C   UNL     1      36.439  -5.042  29.939  1.00  0.00     0.010 A 
ATOM     36  N   UNL     1      34.202  -4.174  30.823  1.00  0.00    -0.361 N 
ATOM     37  C   UNL     1      34.548  -5.093  29.287  1.00  0.00     0.026 A 
ATOM     38  C   UNL     1      36.220  -5.491  29.073  1.00  0.00     0.001 A 
ATOM     39  H   UNL     1      33.587  -4.092  30.787  1.00  0.00     0.166 HD
ATOM     40  C   UNL     1      35.275  -5.517  28.747  1.00  0.00     0.002 A 
ENDBRANCH  30  31
ENDBRANCH  21  30
ENDBRANCH  19  21
ENDBRANCH   4  17
ENDBRANCH   3   4
ENDBRANCH   2   3
ENDBRANCH   1   2
BRANCH   1  41
ATOM     41  C   UNL     1      36.403  -5.547  37.178  1.00  0.00     0.115 C 
BRANCH  41  42
ATOM     42  N   UNL     1      36.380  -5.651  38.172  1.00  0.00    -0.363 N 
ATOM     43  H   UNL     1      36.350  -6.217  38.424  1.00  0.00     0.162 HD
BRANCH  42  44
ATOM     44  C   UNL     1      36.403  -4.843  38.761  1.00  0.00     0.166 C 
ATOM     45  S   UNL     1      35.556  -4.357  38.977  1.00  0.00    -0.041 S 
BRANCH  44  46
ATOM     46  N   UNL     1      37.273  -4.521  39.134  1.00  0.00    -0.362 N 
ATOM     47  H   UNL     1      37.636  -4.149  38.797  1.00  0.00     0.162 HD
BRANCH  46  48
ATOM     48  C   UNL     1      37.558  -4.800  40.050  1.00  0.00     0.127 C 
BRANCH  48  49
ATOM     49  C   UNL     1      38.517  -4.715  40.324  1.00  0.00     0.143 C 
BRANCH  49  50
ATOM     50  C   UNL     1      39.057  -5.534  40.516  1.00  0.00     0.305 C 
ATOM     51  O   UNL     1      39.753  -5.838  39.863  1.00  0.00    -0.252 OA
BRANCH  50  52
ATOM     52  O   UNL     1      38.903  -6.050  41.358  1.00  0.00    -0.481 OA
ATOM     53  H   UNL     1      38.334  -6.080  41.603  1.00  0.00     0.296 HD
ENDBRANCH  50  52
ENDBRANCH  49  50
ENDBRANCH  48  49
ENDBRANCH  46  48
ENDBRANCH  44  46
ENDBRANCH  42  44
ENDBRANCH  41  42
ENDBRANCH   1  41
TORSDOF 20
ENDMDL
MODEL 2
REMARK VINA RESULT:    -8.100      1.706      2.171
REMARK INTER + INTRA:           3.271
REMARK INTER:                 -17.138
REMARK INTRA:                  20.408
REMARK UNBOUND:                20.604
REMARK SMILES O=C(O)CCNC(=S)NCCCC[C@H](NS(=O)(=O)c1cccc(F)c1)C(=O)N[C@@H](Cc1c[nH]c2ccccc12)C(=O)NC1CCC1
REMARK SMILES IDX 11 1 12 2 13 3 14 4 15 5 16 7 17 8 18 9 19 10 20 11 25 12
REMARK SMILES IDX 21 13 23 14 22 15 24 16 26 17 27 18 28 19 29 21 40 22 41 23
REMARK SMILES IDX 42 24 43 26 44 27 46 28 45 29 30 30 31 31 39 32 32 33 34 34
REMARK SMILES IDX 38 35 33 36 35 37 37 38 36 40 10 41 9 42 7 44 8 45 6 46 5 48
REMARK SMILES IDX 4 49 2 50 1 51 3 52
REMARK H PARENT 15 6 28 20 42 25 33 39 9 43 6 47 3 53
REMARK Flexibility Score: inf
ROOT
ATOM      1  C   UNL     1      38.304  -5.015  37.090  1.00  0.00     0.021 C 
ENDROOT
BRANCH   1   2
ATOM      2  C   UNL     1      37.468  -5.021  36.540  1.00  0.00     0.004 C 
BRANCH   2   3
ATOM      3  C   UNL     1      37.508  -5.280  35.574  1.00  0.00     0.030 C 
BRANCH   3   4
ATOM      4  C   UNL     1      36.671  -5.302  35.028  1.00  0.00     0.159 C 
BRANCH   4   5
ATOM      5  N   UNL     1      36.098  -6.121  35.023  1.00  0.00    -0.199 NA
ATOM      6  H   UNL     1      35.740  -6.253  35.512  1.00  0.00     0.142 HD
BRANCH   5   7
ATOM      7  S   UNL     1      36.102  -6.729  34.229  1.00  0.00     0.241 S 
ATOM      8  O   UNL     1      35.150  -6.488  34.039  1.00  0.00    -0.207 OA
ATOM      9  O   UNL     1      37.054  -6.970  34.418  1.00  0.00    -0.207 OA
BRANCH   7  10
ATOM     10  C   UNL     1      36.106  -7.336  33.435  1.00  0.00     0.085 A 
ATOM     11  C   UNL     1      35.241  -7.658  33.047  1.00  0.00     0.022 A 
ATOM     12  C   UNL     1      36.973  -7.623  33.027  1.00  0.00     0.061 A 
ATOM     13  C   UNL     1      35.244  -8.266  32.253  1.00  0.00     0.004 A 
ATOM     14  C   UNL     1      36.976  -8.230  32.233  1.00  0.00     0.124 A 
ATOM     15  C   UNL     1      36.112  -8.552  31.846  1.00  0.00     0.039 A 
ATOM     16  F   UNL     1      37.844  -8.517  31.826  1.00  0.00    -0.207 F 
ENDBRANCH   7  10
ENDBRANCH   5   7
ENDBRANCH   4   5
BRANCH   4  17
ATOM     17  C   UNL     1      36.406  -4.504  34.486  1.00  0.00     0.238 C 
ATOM     18  O   UNL     1      35.564  -4.010  34.701  1.00  0.00    -0.273 OA
ATOM     19  N   UNL     1      36.984  -4.200  33.728  1.00  0.00    -0.343 N 
ATOM     20  H   UNL     1      37.506  -4.507  33.594  1.00  0.00     0.164 HD
BRANCH  19  21
ATOM     21  C   UNL     1      36.719  -3.403  33.187  1.00  0.00     0.175 C 
BRANCH  21  22
ATOM     22  C   UNL     1      37.107  -2.506  33.396  1.00  0.00     0.243 C 
ATOM     23  O   UNL     1      38.095  -2.403  33.515  1.00  0.00    -0.273 OA
ATOM     24  N   UNL     1      36.508  -1.709  33.487  1.00  0.00    -0.352 N 
ATOM     25  H   UNL     1      35.896  -1.773  33.413  1.00  0.00     0.163 HD
BRANCH  24  26
ATOM     26  C   UNL     1      36.898  -0.812  33.696  1.00  0.00     0.082 C 
ATOM     27  C   UNL     1      37.041   0.034  33.183  1.00  0.00     0.025 C 
ATOM     28  C   UNL     1      37.305  -0.390  34.506  1.00  0.00     0.025 C 
ATOM     29  C   UNL     1      37.448   0.456  33.993  1.00  0.00     0.004 C 
ENDBRANCH  24  26
ENDBRANCH  21  22
BRANCH  21  30
ATOM     30  C   UNL     1      36.066  -3.502  32.436  1.00  0.00     0.072 C 
BRANCH  30  31
ATOM     31  C   UNL     1      36.282  -4.095  31.660  1.00  0.00    -0.020 A 
ATOM     32  C   UNL     1      35.624  -4.525  31.052  1.00  0.00     0.003 A 
ATOM     33  C   UNL     1      37.195  -4.357  31.362  1.00  0.00     0.087 A 
ATOM     34  C   UNL     1      36.133  -5.056  30.374  1.00  0.00     0.046 A 
ATOM     35  C   UNL     1      34.625  -4.505  31.023  1.00  0.00     0.010 A 
ATOM     36  N   UNL     1      37.101  -4.950  30.570  1.00  0.00    -0.361 N 
ATOM     37  C   UNL     1      35.643  -5.567  29.668  1.00  0.00     0.026 A 
ATOM     38  C   UNL     1      34.134  -5.016  30.317  1.00  0.00     0.001 A 
ATOM     39  H   UNL     1      37.568  -5.208  30.252  1.00  0.00     0.166 HD
ATOM     40  C   UNL     1      34.643  -5.546  29.640  1.00  0.00     0.002 A 
ENDBRANCH  30  31
ENDBRANCH  21  30
ENDBRANCH  19  21
ENDBRANCH   4  17
ENDBRANCH   3   4
ENDBRANCH   2   3
ENDBRANCH   1   2
BRANCH   1  41
ATOM     41  C   UNL     1      38.245  -5.047  38.087  1.00  0.00     0.115 C 
BRANCH  41  42
ATOM     42  N   UNL     1      39.057  -5.268  38.629  1.00  0.00    -0.363 N 
ATOM     43  H   UNL     1      39.620  -5.229  38.373  1.00  0.00     0.162 HD
BRANCH  42  44
ATOM     44  C   UNL     1      38.960  -5.551  39.583  1.00  0.00     0.166 C 
ATOM     45  S   UNL     1      38.307  -5.083  40.179  1.00  0.00    -0.041 S 
BRANCH  44  46
ATOM     46  N   UNL     1      39.515  -6.301  39.940  1.00  0.00    -0.362 N 
ATOM     47  H   UNL     1      40.133  -6.280  39.893  1.00  0.00     0.162 HD
BRANCH  46  48
ATOM     48  C   UNL     1      39.075  -7.087  40.374  1.00  0.00     0.127 C 
BRANCH  48  49
ATOM     49  C   UNL     1      39.443  -8.007  40.235  1.00  0.00     0.143 C 
BRANCH  49  50
ATOM     50  C   UNL     1      39.939  -8.464  40.974  1.00  0.00     0.305 C 
ATOM     51  O   UNL     1      39.434  -8.897  41.721  1.00  0.00    -0.252 OA
BRANCH  50  52
ATOM     52  O   UNL     1      40.938  -8.488  40.965  1.00  0.00    -0.481 OA
ATOM     53  H   UNL     1      41.252  -8.159  40.544  1.00  0.00     0.296 HD
ENDBRANCH  50  52
ENDBRANCH  49  50
ENDBRANCH  48  49
ENDBRANCH  46  48
ENDBRANCH  44  46
ENDBRANCH  42  44
ENDBRANCH  41  42
ENDBRANCH   1  41
TORSDOF 20
ENDMDL
MODEL 3
REMARK VINA RESULT:    -8.008      1.853      3.857
REMARK INTER + INTRA:           3.466
REMARK INTER:                 -17.406
REMARK INTRA:                  20.872
REMARK UNBOUND:                20.604
REMARK SMILES O=C(O)CCNC(=S)NCCCC[C@H](NS(=O)(=O)c1cccc(F)c1)C(=O)N[C@@H](Cc1c[nH]c2ccccc12)C(=O)NC1CCC1
REMARK SMILES IDX 11 1 12 2 13 3 14 4 15 5 16 7 17 8 18 9 19 10 20 11 25 12
REMARK SMILES IDX 21 13 23 14 22 15 24 16 26 17 27 18 28 19 29 21 40 22 41 23
REMARK SMILES IDX 42 24 43 26 44 27 46 28 45 29 30 30 31 31 39 32 32 33 34 34
REMARK SMILES IDX 38 35 33 36 35 37 37 38 36 40 10 41 9 42 7 44 8 45 6 46 5 48
REMARK SMILES IDX 4 49 2 50 1 51 3 52
REMARK H PARENT 15 6 28 20 42 25 33 39 9 43 6 47 3 53
REMARK Flexibility Score: inf
ROOT
ATOM      1  C   UNL     1      37.297  -7.920  35.974  1.00  0.00     0.021 C 
ENDROOT
BRANCH   1   2
ATOM      2  C   UNL     1      37.277  -7.526  35.054  1.00  0.00     0.004 C 
BRANCH   2   3
ATOM      3  C   UNL     1      36.925  -8.063  34.287  1.00  0.00     0.030 C 
BRANCH   3   4
ATOM      4  C   UNL     1      36.908  -7.671  33.368  1.00  0.00     0.159 C 
BRANCH   4   5
ATOM      5  N   UNL     1      37.503  -8.040  32.655  1.00  0.00    -0.199 NA
ATOM      6  H   UNL     1      37.967  -7.697  32.428  1.00  0.00     0.142 HD
BRANCH   5   7
ATOM      7  S   UNL     1      37.350  -8.965  32.306  1.00  0.00     0.241 S 
ATOM      8  O   UNL     1      36.712  -8.603  31.625  1.00  0.00    -0.207 OA
ATOM      9  O   UNL     1      37.988  -9.327  32.985  1.00  0.00    -0.207 OA
BRANCH   7  10
ATOM     10  C   UNL     1      37.197  -9.889  31.957  1.00  0.00     0.085 A 
ATOM     11  C   UNL     1      36.265 -10.236  31.852  1.00  0.00     0.022 A 
ATOM     12  C   UNL     1      37.975 -10.468  31.712  1.00  0.00     0.061 A 
ATOM     13  C   UNL     1      36.111 -11.160  31.502  1.00  0.00     0.004 A 
ATOM     14  C   UNL     1      37.822 -11.391  31.363  1.00  0.00     0.124 A 
ATOM     15  C   UNL     1      36.890 -11.739  31.258  1.00  0.00     0.039 A 
ATOM     16  F   UNL     1      38.601 -11.970  31.118  1.00  0.00    -0.207 F 
ENDBRANCH   7  10
ENDBRANCH   5   7
ENDBRANCH   4   5
BRANCH   4  17
ATOM     17  C   UNL     1      36.295  -6.908  33.162  1.00  0.00     0.238 C 
ATOM     18  O   UNL     1      35.318  -6.983  33.361  1.00  0.00    -0.273 OA
ATOM     19  N   UNL     1      36.659  -6.070  32.755  1.00  0.00    -0.343 N 
ATOM     20  H   UNL     1      37.266  -6.023  32.632  1.00  0.00     0.164 HD
BRANCH  19  21
ATOM     21  C   UNL     1      36.047  -5.307  32.549  1.00  0.00     0.175 C 
BRANCH  21  22
ATOM     22  C   UNL     1      35.606  -5.249  31.653  1.00  0.00     0.243 C 
ATOM     23  O   UNL     1      34.717  -4.801  31.560  1.00  0.00    -0.273 OA
ATOM     24  N   UNL     1      36.055  -5.639  30.848  1.00  0.00    -0.352 N 
ATOM     25  H   UNL     1      36.606  -5.917  30.906  1.00  0.00     0.163 HD
BRANCH  24  26
ATOM     26  C   UNL     1      35.614  -5.581  29.952  1.00  0.00     0.082 C 
ATOM     27  C   UNL     1      34.961  -6.144  29.447  1.00  0.00     0.025 C 
ATOM     28  C   UNL     1      35.645  -4.934  29.190  1.00  0.00     0.025 C 
ATOM     29  C   UNL     1      34.991  -5.497  28.686  1.00  0.00     0.004 C 
ENDBRANCH  24  26
ENDBRANCH  21  22
BRANCH  21  30
ATOM     30  C   UNL     1      35.874  -4.604  33.237  1.00  0.00     0.072 C 
BRANCH  30  31
ATOM     31  C   UNL     1      36.618  -4.008  33.541  1.00  0.00    -0.020 A 
ATOM     32  C   UNL     1      36.813  -3.750  34.481  1.00  0.00     0.003 A 
ATOM     33  C   UNL     1      37.292  -3.570  32.955  1.00  0.00     0.087 A 
ATOM     34  C   UNL     1      37.612  -3.149  34.475  1.00  0.00     0.046 A 
ATOM     35  C   UNL     1      36.369  -3.981  35.346  1.00  0.00     0.010 A 
ATOM     36  N   UNL     1      37.904  -3.041  33.531  1.00  0.00    -0.361 N 
ATOM     37  C   UNL     1      37.967  -2.780  35.334  1.00  0.00     0.026 A 
ATOM     38  C   UNL     1      36.724  -3.612  36.205  1.00  0.00     0.001 A 
ATOM     39  H   UNL     1      38.386  -2.702  33.335  1.00  0.00     0.166 HD
ATOM     40  C   UNL     1      37.523  -3.012  36.199  1.00  0.00     0.002 A 
ENDBRANCH  30  31
ENDBRANCH  21  30
ENDBRANCH  19  21
ENDBRANCH   4  17
ENDBRANCH   3   4
ENDBRANCH   2   3
ENDBRANCH   1   2
BRANCH   1  41
ATOM     41  C   UNL     1      36.998  -7.376  36.757  1.00  0.00     0.115 C 
BRANCH  41  42
ATOM     42  N   UNL     1      37.569  -7.324  37.577  1.00  0.00    -0.363 N 
ATOM     43  H   UNL     1      38.093  -7.654  37.611  1.00  0.00     0.162 HD
BRANCH  42  44
ATOM     44  C   UNL     1      37.295  -6.741  38.341  1.00  0.00     0.166 C 
ATOM     45  S   UNL     1      36.424  -6.902  38.806  1.00  0.00    -0.041 S 
BRANCH  44  46
ATOM     46  N   UNL     1      37.892  -5.997  38.641  1.00  0.00    -0.362 N 
ATOM     47  H   UNL     1      37.991  -5.510  38.270  1.00  0.00     0.162 HD
BRANCH  46  48
ATOM     48  C   UNL     1      38.329  -6.037  39.539  1.00  0.00     0.127 C 
BRANCH  48  49
ATOM     49  C   UNL     1      38.971  -5.323  39.816  1.00  0.00     0.143 C 
BRANCH  49  50
ATOM     50  C   UNL     1      38.917  -4.928  40.733  1.00  0.00     0.305 C 
ATOM     51  O   UNL     1      38.758  -5.521  41.524  1.00  0.00    -0.252 OA
BRANCH  50  52
ATOM     52  O   UNL     1      39.021  -3.942  40.861  1.00  0.00    -0.481 OA
ATOM     53  H   UNL     1      39.338  -3.608  40.446  1.00  0.00     0.296 HD
ENDBRANCH  50  52
ENDBRANCH  49  50
ENDBRANCH  48  49
ENDBRANCH  46  48
ENDBRANCH  44  46
ENDBRANCH  42  44
ENDBRANCH  41  42
ENDBRANCH   1  41
TORSDOF 20
ENDMDL
MODEL 4
REMARK VINA RESULT:    -7.985      4.060      6.289
REMARK INTER + INTRA:           3.517
REMARK INTER:                 -16.753
REMARK INTRA:                  20.270
REMARK UNBOUND:                20.604
REMARK SMILES O=C(O)CCNC(=S)NCCCC[C@H](NS(=O)(=O)c1cccc(F)c1)C(=O)N[C@@H](Cc1c[nH]c2ccccc12)C(=O)NC1CCC1
REMARK SMILES IDX 11 1 12 2 13 3 14 4 15 5 16 7 17 8 18 9 19 10 20 11 25 12
REMARK SMILES IDX 21 13 23 14 22 15 24 16 26 17 27 18 28 19 29 21 40 22 41 23
REMARK SMILES IDX 42 24 43 26 44 27 46 28 45 29 30 30 31 31 39 32 32 33 34 34
REMARK SMILES IDX 38 35 33 36 35 37 37 38 36 40 10 41 9 42 7 44 8 45 6 46 5 48
REMARK SMILES IDX 4 49 2 50 1 51 3 52
REMARK H PARENT 15 6 28 20 42 25 33 39 9 43 6 47 3 53
REMARK Flexibility Score: inf
ROOT
ATOM      1  C   UNL     1      31.559  -3.023  34.508  1.00  0.00     0.021 C 
ENDROOT
BRANCH   1   2
ATOM      2  C   UNL     1      32.277  -2.985  33.812  1.00  0.00     0.004 C 
BRANCH   2   3
ATOM      3  C   UNL     1      32.861  -3.781  33.652  1.00  0.00     0.030 C 
BRANCH   3   4
ATOM      4  C   UNL     1      33.324  -3.893  32.773  1.00  0.00     0.159 C 
BRANCH   4   5
ATOM      5  N   UNL     1      32.944  -4.508  32.082  1.00  0.00    -0.199 NA
ATOM      6  H   UNL     1      32.444  -4.339  31.756  1.00  0.00     0.142 HD
BRANCH   5   7
ATOM      7  S   UNL     1      33.370  -5.398  31.916  1.00  0.00     0.241 S 
ATOM      8  O   UNL     1      33.162  -5.673  32.855  1.00  0.00    -0.207 OA
ATOM      9  O   UNL     1      33.578  -5.122  30.978  1.00  0.00    -0.207 OA
BRANCH   7  10
ATOM     10  C   UNL     1      33.796  -6.286  31.750  1.00  0.00     0.085 A 
ATOM     11  C   UNL     1      34.219  -6.787  32.506  1.00  0.00     0.022 A 
ATOM     12  C   UNL     1      33.801  -6.676  30.829  1.00  0.00     0.061 A 
ATOM     13  C   UNL     1      34.645  -7.677  32.342  1.00  0.00     0.004 A 
ATOM     14  C   UNL     1      34.226  -7.565  30.664  1.00  0.00     0.124 A 
ATOM     15  C   UNL     1      34.649  -8.066  31.420  1.00  0.00     0.039 A 
ATOM     16  F   UNL     1      34.231  -7.955  29.742  1.00  0.00    -0.207 F 
ENDBRANCH   7  10
ENDBRANCH   5   7
ENDBRANCH   4   5
BRANCH   4  17
ATOM     17  C   UNL     1      34.167  -3.390  32.584  1.00  0.00     0.238 C 
ATOM     18  O   UNL     1      34.192  -2.711  31.851  1.00  0.00    -0.273 OA
ATOM     19  N   UNL     1      34.987  -3.567  33.129  1.00  0.00    -0.343 N 
ATOM     20  H   UNL     1      34.972  -3.988  33.584  1.00  0.00     0.164 HD
BRANCH  19  21
ATOM     21  C   UNL     1      35.830  -3.064  32.941  1.00  0.00     0.175 C 
BRANCH  21  22
ATOM     22  C   UNL     1      36.114  -2.321  33.546  1.00  0.00     0.243 C 
ATOM     23  O   UNL     1      36.074  -2.441  34.539  1.00  0.00    -0.273 OA
ATOM     24  N   UNL     1      36.440  -1.457  33.160  1.00  0.00    -0.352 N 
ATOM     25  H   UNL     1      36.465  -1.383  32.546  1.00  0.00     0.163 HD
BRANCH  24  26
ATOM     26  C   UNL     1      36.724  -0.714  33.767  1.00  0.00     0.082 C 
ATOM     27  C   UNL     1      36.292   0.116  34.119  1.00  0.00     0.025 C 
ATOM     28  C   UNL     1      37.558  -0.494  34.272  1.00  0.00     0.025 C 
ATOM     29  C   UNL     1      37.126   0.336  34.624  1.00  0.00     0.004 C 
ENDBRANCH  24  26
ENDBRANCH  21  22
BRANCH  21  30
ATOM     30  C   UNL     1      36.389  -3.304  32.147  1.00  0.00     0.072 C 
BRANCH  30  31
ATOM     31  C   UNL     1      36.856  -4.188  32.114  1.00  0.00    -0.020 A 
ATOM     32  C   UNL     1      37.011  -4.736  31.299  1.00  0.00     0.003 A 
ATOM     33  C   UNL     1      37.248  -4.671  32.890  1.00  0.00     0.087 A 
ATOM     34  C   UNL     1      37.501  -5.563  31.574  1.00  0.00     0.046 A 
ATOM     35  C   UNL     1      36.771  -4.594  30.339  1.00  0.00     0.010 A 
ATOM     36  N   UNL     1      37.645  -5.519  32.557  1.00  0.00    -0.361 N 
ATOM     37  C   UNL     1      37.751  -6.248  30.890  1.00  0.00     0.026 A 
ATOM     38  C   UNL     1      37.021  -5.278  29.654  1.00  0.00     0.001 A 
ATOM     39  H   UNL     1      37.933  -5.946  32.902  1.00  0.00     0.166 HD
ATOM     40  C   UNL     1      37.511  -6.105  29.929  1.00  0.00     0.002 A 
ENDBRANCH  30  31
ENDBRANCH  21  30
ENDBRANCH  19  21
ENDBRANCH   4  17
ENDBRANCH   3   4
ENDBRANCH   2   3
ENDBRANCH   1   2
BRANCH   1  41
ATOM     41  C   UNL     1      30.932  -2.254  34.621  1.00  0.00     0.115 C 
BRANCH  41  42
ATOM     42  N   UNL     1      29.944  -2.413  34.647  1.00  0.00    -0.363 N 
ATOM     43  H   UNL     1      29.724  -2.989  34.706  1.00  0.00     0.162 HD
BRANCH  42  44
ATOM     44  C   UNL     1      29.311  -1.642  34.577  1.00  0.00     0.166 C 
ATOM     45  S   UNL     1      29.032  -1.148  35.401  1.00  0.00    -0.041 S 
BRANCH  44  46
ATOM     46  N   UNL     1      28.958  -1.364  33.684  1.00  0.00    -0.362 N 
ATOM     47  H   UNL     1      29.324  -1.061  33.286  1.00  0.00     0.162 HD
BRANCH  46  48
ATOM     48  C   UNL     1      28.013  -1.574  33.433  1.00  0.00     0.127 C 
BRANCH  48  49
ATOM     49  C   UNL     1      27.644  -1.252  32.560  1.00  0.00     0.143 C 
BRANCH  49  50
ATOM     50  C   UNL     1      26.680  -1.400  32.340  1.00  0.00     0.305 C 
ATOM     51  O   UNL     1      26.424  -2.050  31.625  1.00  0.00    -0.252 OA
BRANCH  50  52
ATOM     52  O   UNL     1      25.971  -0.897  32.835  1.00  0.00    -0.481 OA
ATOM     53  H   UNL     1      25.496  -0.646  32.525  1.00  0.00     0.296 HD
ENDBRANCH  50  52
ENDBRANCH  49  50
ENDBRANCH  48  49
ENDBRANCH  46  48
ENDBRANCH  44  46
ENDBRANCH  42  44
ENDBRANCH  41  42
ENDBRANCH   1  41
TORSDOF 20
ENDMDL
MODEL 5
REMARK VINA RESULT:    -7.940      9.920     12.949
REMARK INTER + INTRA:           3.611
REMARK INTER:                 -16.914
REMARK INTRA:                  20.526
REMARK UNBOUND:                20.604
REMARK SMILES O=C(O)CCNC(=S)NCCCC[C@H](NS(=O)(=O)c1cccc(F)c1)C(=O)N[C@@H](Cc1c[nH]c2ccccc12)C(=O)NC1CCC1
REMARK SMILES IDX 11 1 12 2 13 3 14 4 15 5 16 7 17 8 18 9 19 10 20 11 25 12
REMARK SMILES IDX 21 13 23 14 22 15 24 16 26 17 27 18 28 19 29 21 40 22 41 23
REMARK SMILES IDX 42 24 43 26 44 27 46 28 45 29 30 30 31 31 39 32 32 33 34 34
REMARK SMILES IDX 38 35 33 36 35 37 37 38 36 40 10 41 9 42 7 44 8 45 6 46 5 48
REMARK SMILES IDX 4 49 2 50 1 51 3 52
REMARK H PARENT 15 6 28 20 42 25 33 39 9 43 6 47 3 53
REMARK Flexibility Score: inf
ROOT
ATOM      1  C   UNL     1      33.822   5.743  32.104  1.00  0.00     0.021 C 
ENDROOT
BRANCH   1   2
ATOM      2  C   UNL     1      32.981   5.308  31.780  1.00  0.00     0.004 C 
BRANCH   2   3
ATOM      3  C   UNL     1      32.332   4.922  32.436  1.00  0.00     0.030 C 
BRANCH   3   4
ATOM      4  C   UNL     1      31.497   4.480  32.111  1.00  0.00     0.159 C 
BRANCH   4   5
ATOM      5  N   UNL     1      31.542   3.579  31.681  1.00  0.00    -0.199 NA
ATOM      6  H   UNL     1      31.756   3.520  31.102  1.00  0.00     0.142 HD
BRANCH   5   7
ATOM      7  S   UNL     1      31.241   2.769  32.186  1.00  0.00     0.241 S 
ATOM      8  O   UNL     1      31.988   2.898  32.839  1.00  0.00    -0.207 OA
ATOM      9  O   UNL     1      30.495   2.639  31.533  1.00  0.00    -0.207 OA
BRANCH   7  10
ATOM     10  C   UNL     1      30.941   1.960  32.690  1.00  0.00     0.085 A 
ATOM     11  C   UNL     1      31.225   1.829  33.641  1.00  0.00     0.022 A 
ATOM     12  C   UNL     1      30.357   1.280  32.247  1.00  0.00     0.061 A 
ATOM     13  C   UNL     1      30.926   1.020  34.146  1.00  0.00     0.004 A 
ATOM     14  C   UNL     1      30.057   0.472  32.751  1.00  0.00     0.124 A 
ATOM     15  C   UNL     1      30.341   0.341  33.702  1.00  0.00     0.039 A 
ATOM     16  F   UNL     1      29.472  -0.208  32.307  1.00  0.00    -0.207 F 
ENDBRANCH   7  10
ENDBRANCH   5   7
ENDBRANCH   4   5
BRANCH   4  17
ATOM     17  C   UNL     1      30.615   4.940  32.215  1.00  0.00     0.238 C 
ATOM     18  O   UNL     1      30.149   5.318  31.416  1.00  0.00    -0.273 OA
ATOM     19  N   UNL     1      30.198   5.021  33.121  1.00  0.00    -0.343 N 
ATOM     20  H   UNL     1      30.486   4.787  33.618  1.00  0.00     0.164 HD
BRANCH  19  21
ATOM     21  C   UNL     1      29.316   5.481  33.226  1.00  0.00     0.175 C 
BRANCH  21  22
ATOM     22  C   UNL     1      29.280   6.421  33.564  1.00  0.00     0.243 C 
ATOM     23  O   UNL     1      29.919   6.723  34.272  1.00  0.00    -0.273 OA
ATOM     24  N   UNL     1      28.606   7.061  33.194  1.00  0.00    -0.352 N 
ATOM     25  H   UNL     1      28.210   6.874  32.756  1.00  0.00     0.163 HD
BRANCH  24  26
ATOM     26  C   UNL     1      28.570   8.002  33.533  1.00  0.00     0.082 C 
ATOM     27  C   UNL     1      28.836   8.894  33.170  1.00  0.00     0.025 C 
ATOM     28  C   UNL     1      28.255   8.438  34.375  1.00  0.00     0.025 C 
ATOM     29  C   UNL     1      28.520   9.331  34.012  1.00  0.00     0.004 C 
ENDBRANCH  24  26
ENDBRANCH  21  22
BRANCH  21  30
ATOM     30  C   UNL     1      28.471   5.001  32.993  1.00  0.00     0.072 C 
BRANCH  30  31
ATOM     31  C   UNL     1      28.158   4.237  33.557  1.00  0.00    -0.020 A 
ATOM     32  C   UNL     1      27.623   3.459  33.244  1.00  0.00     0.003 A 
ATOM     33  C   UNL     1      28.326   4.123  34.531  1.00  0.00     0.087 A 
ATOM     34  C   UNL     1      27.461   2.862  34.029  1.00  0.00     0.046 A 
ATOM     35  C   UNL     1      27.261   3.214  32.345  1.00  0.00     0.010 A 
ATOM     36  N   UNL     1      27.897   3.275  34.821  1.00  0.00    -0.361 N 
ATOM     37  C   UNL     1      26.936   2.018  33.915  1.00  0.00     0.026 A 
ATOM     38  C   UNL     1      26.736   2.370  32.231  1.00  0.00     0.001 A 
ATOM     39  H   UNL     1      27.900   3.044  35.397  1.00  0.00     0.166 HD
ATOM     40  C   UNL     1      26.574   1.772  33.016  1.00  0.00     0.002 A 
ENDBRANCH  30  31
ENDBRANCH  21  30
ENDBRANCH  19  21
ENDBRANCH   4  17
ENDBRANCH   3   4
ENDBRANCH   2   3
ENDBRANCH   1   2
BRANCH   1  41
ATOM     41  C   UNL     1      34.530   6.010  31.452  1.00  0.00     0.115 C 
BRANCH  41  42
ATOM     42  N   UNL     1      35.252   6.645  31.730  1.00  0.00    -0.363 N 
ATOM     43  H   UNL     1      35.240   6.900  32.295  1.00  0.00     0.162 HD
BRANCH  42  44
ATOM     44  C   UNL     1      35.994   6.867  31.098  1.00  0.00     0.166 C 
ATOM     45  S   UNL     1      36.328   6.175  30.457  1.00  0.00    -0.041 S 
BRANCH  44  46
ATOM     46  N   UNL     1      36.401   7.780  31.106  1.00  0.00    -0.362 N 
ATOM     47  H   UNL     1      36.134   8.236  31.429  1.00  0.00     0.162 HD
BRANCH  46  48
ATOM     48  C   UNL     1      37.240   7.957  30.592  1.00  0.00     0.127 C 
BRANCH  48  49
ATOM     49  C   UNL     1      37.833   8.721  30.850  1.00  0.00     0.143 C 
BRANCH  49  50
ATOM     50  C   UNL     1      38.168   9.353  30.151  1.00  0.00     0.305 C 
ATOM     51  O   UNL     1      38.541   8.997  29.293  1.00  0.00    -0.252 OA
BRANCH  50  52
ATOM     52  O   UNL     1      38.131  10.339  30.309  1.00  0.00    -0.481 OA
ATOM     53  H   UNL     1      38.520  10.716  30.007  1.00  0.00     0.296 HD
ENDBRANCH  50  52
ENDBRANCH  49  50
ENDBRANCH  48  49
ENDBRANCH  46  48
ENDBRANCH  44  46
ENDBRANCH  42  44
ENDBRANCH  41  42
ENDBRANCH   1  41
TORSDOF 20
ENDMDL
MODEL 6
REMARK VINA RESULT:    -7.904      1.795      2.177
REMARK INTER + INTRA:           3.690
REMARK INTER:                 -16.375
REMARK INTRA:                  20.065
REMARK UNBOUND:                20.604
REMARK SMILES O=C(O)CCNC(=S)NCCCC[C@H](NS(=O)(=O)c1cccc(F)c1)C(=O)N[C@@H](Cc1c[nH]c2ccccc12)C(=O)NC1CCC1
REMARK SMILES IDX 11 1 12 2 13 3 14 4 15 5 16 7 17 8 18 9 19 10 20 11 25 12
REMARK SMILES IDX 21 13 23 14 22 15 24 16 26 17 27 18 28 19 29 21 40 22 41 23
REMARK SMILES IDX 42 24 43 26 44 27 46 28 45 29 30 30 31 31 39 32 32 33 34 34
REMARK SMILES IDX 38 35 33 36 35 37 37 38 36 40 10 41 9 42 7 44 8 45 6 46 5 48
REMARK SMILES IDX 4 49 2 50 1 51 3 52
REMARK H PARENT 15 6 28 20 42 25 33 39 9 43 6 47 3 53
REMARK Flexibility Score: inf
ROOT
ATOM      1  C   UNL     1      38.214  -3.912  36.718  1.00  0.00     0.021 C 
ENDROOT
BRANCH   1   2
ATOM      2  C   UNL     1      38.306  -4.221  35.771  1.00  0.00     0.004 C 
BRANCH   2   3
ATOM      3  C   UNL     1      37.494  -4.489  35.251  1.00  0.00     0.030 C 
BRANCH   3   4
ATOM      4  C   UNL     1      37.522  -4.501  34.252  1.00  0.00     0.159 C 
BRANCH   4   5
ATOM      5  N   UNL     1      37.883  -5.299  33.771  1.00  0.00    -0.199 NA
ATOM      6  H   UNL     1      38.496  -5.383  33.723  1.00  0.00     0.142 HD
BRANCH   5   7
ATOM      7  S   UNL     1      37.256  -5.965  33.366  1.00  0.00     0.241 S 
ATOM      8  O   UNL     1      36.938  -6.221  34.280  1.00  0.00    -0.207 OA
ATOM      9  O   UNL     1      37.574  -5.709  32.454  1.00  0.00    -0.207 OA
BRANCH   7  10
ATOM     10  C   UNL     1      36.629  -6.630  32.962  1.00  0.00     0.085 A 
ATOM     11  C   UNL     1      36.874  -7.096  32.111  1.00  0.00     0.022 A 
ATOM     12  C   UNL     1      35.756  -6.831  33.408  1.00  0.00     0.061 A 
ATOM     13  C   UNL     1      36.247  -7.762  31.707  1.00  0.00     0.004 A 
ATOM     14  C   UNL     1      35.129  -7.497  33.004  1.00  0.00     0.124 A 
ATOM     15  C   UNL     1      35.374  -7.962  32.153  1.00  0.00     0.039 A 
ATOM     16  F   UNL     1      34.256  -7.697  33.450  1.00  0.00    -0.207 F 
ENDBRANCH   7  10
ENDBRANCH   5   7
ENDBRANCH   4   5
BRANCH   4  17
ATOM     17  C   UNL     1      37.189  -3.714  33.734  1.00  0.00     0.238 C 
ATOM     18  O   UNL     1      37.819  -3.183  33.168  1.00  0.00    -0.273 OA
ATOM     19  N   UNL     1      36.223  -3.457  33.780  1.00  0.00    -0.343 N 
ATOM     20  H   UNL     1      35.831  -3.787  34.131  1.00  0.00     0.164 HD
BRANCH  19  21
ATOM     21  C   UNL     1      35.889  -2.671  33.261  1.00  0.00     0.175 C 
BRANCH  21  22
ATOM     22  C   UNL     1      35.872  -1.765  33.684  1.00  0.00     0.243 C 
ATOM     23  O   UNL     1      36.048  -0.950  33.130  1.00  0.00    -0.273 OA
ATOM     24  N   UNL     1      35.680  -1.672  34.662  1.00  0.00    -0.352 N 
ATOM     25  H   UNL     1      35.572  -2.176  35.005  1.00  0.00     0.163 HD
BRANCH  24  26
ATOM     26  C   UNL     1      35.664  -0.765  35.084  1.00  0.00     0.082 C 
ATOM     27  C   UNL     1      34.962  -0.069  35.238  1.00  0.00     0.025 C 
ATOM     28  C   UNL     1      36.341  -0.180  35.528  1.00  0.00     0.025 C 
ATOM     29  C   UNL     1      35.640   0.516  35.681  1.00  0.00     0.004 C 
ENDBRANCH  24  26
ENDBRANCH  21  22
BRANCH  21  30
ATOM     30  C   UNL     1      35.573  -2.789  32.321  1.00  0.00     0.072 C 
BRANCH  30  31
ATOM     31  C   UNL     1      34.781  -3.369  32.129  1.00  0.00    -0.020 A 
ATOM     32  C   UNL     1      34.660  -3.947  31.329  1.00  0.00     0.003 A 
ATOM     33  C   UNL     1      33.976  -3.467  32.705  1.00  0.00     0.087 A 
ATOM     34  C   UNL     1      33.775  -4.405  31.412  1.00  0.00     0.046 A 
ATOM     35  C   UNL     1      35.239  -4.119  30.532  1.00  0.00     0.010 A 
ATOM     36  N   UNL     1      33.357  -4.106  32.263  1.00  0.00    -0.361 N 
ATOM     37  C   UNL     1      33.469  -5.035  30.699  1.00  0.00     0.026 A 
ATOM     38  C   UNL     1      34.933  -4.749  29.819  1.00  0.00     0.001 A 
ATOM     39  H   UNL     1      32.804  -4.287  32.480  1.00  0.00     0.166 HD
ATOM     40  C   UNL     1      34.048  -5.207  29.902  1.00  0.00     0.002 A 
ENDBRANCH  30  31
ENDBRANCH  21  30
ENDBRANCH  19  21
ENDBRANCH   4  17
ENDBRANCH   3   4
ENDBRANCH   2   3
ENDBRANCH   1   2
BRANCH   1  41
ATOM     41  C   UNL     1      38.453  -4.526  37.470  1.00  0.00     0.115 C 
BRANCH  41  42
ATOM     42  N   UNL     1      38.548  -4.167  38.398  1.00  0.00    -0.363 N 
ATOM     43  H   UNL     1      38.666  -3.565  38.488  1.00  0.00     0.162 HD
BRANCH  42  44
ATOM     44  C   UNL     1      38.453  -4.778  39.184  1.00  0.00     0.166 C 
ATOM     45  S   UNL     1      39.010  -5.606  39.243  1.00  0.00    -0.041 S 
BRANCH  44  46
ATOM     46  N   UNL     1      37.800  -4.562  39.910  1.00  0.00    -0.362 N 
ATOM     47  H   UNL     1      37.193  -4.549  39.787  1.00  0.00     0.162 HD
BRANCH  46  48
ATOM     48  C   UNL     1      38.127  -4.365  40.834  1.00  0.00     0.127 C 
BRANCH  48  49
ATOM     49  C   UNL     1      37.487  -4.054  41.536  1.00  0.00     0.143 C 
BRANCH  49  50
ATOM     50  C   UNL     1      37.810  -3.484  42.291  1.00  0.00     0.305 C 
ATOM     51  O   UNL     1      37.863  -3.862  43.216  1.00  0.00    -0.252 OA
BRANCH  50  52
ATOM     52  O   UNL     1      38.080  -2.536  42.122  1.00  0.00    -0.481 OA
ATOM     53  H   UNL     1      38.654  -2.408  41.926  1.00  0.00     0.296 HD
ENDBRANCH  50  52
ENDBRANCH  49  50
ENDBRANCH  48  49
ENDBRANCH  46  48
ENDBRANCH  44  46
ENDBRANCH  42  44
ENDBRANCH  41  42
ENDBRANCH   1  41
TORSDOF 20
ENDMDL
MODEL 7
REMARK VINA RESULT:    -7.824      2.592      5.934
REMARK INTER + INTRA:           3.860
REMARK INTER:                 -17.651
REMARK INTRA:                  21.511
REMARK UNBOUND:                20.604
REMARK SMILES O=C(O)CCNC(=S)NCCCC[C@H](NS(=O)(=O)c1cccc(F)c1)C(=O)N[C@@H](Cc1c[nH]c2ccccc12)C(=O)NC1CCC1
REMARK SMILES IDX 11 1 12 2 13 3 14 4 15 5 16 7 17 8 18 9 19 10 20 11 25 12
REMARK SMILES IDX 21 13 23 14 22 15 24 16 26 17 27 18 28 19 29 21 40 22 41 23
REMARK SMILES IDX 42 24 43 26 44 27 46 28 45 29 30 30 31 31 39 32 32 33 34 34
REMARK SMILES IDX 38 35 33 36 35 37 37 38 36 40 10 41 9 42 7 44 8 45 6 46 5 48
REMARK SMILES IDX 4 49 2 50 1 51 3 52
REMARK H PARENT 15 6 28 20 42 25 33 39 9 43 6 47 3 53
REMARK Flexibility Score: inf
ROOT
ATOM      1  C   UNL     1      37.177  -7.717  32.570  1.00  0.00     0.021 C 
ENDROOT
BRANCH   1   2
ATOM      2  C   UNL     1      36.729  -7.119  33.235  1.00  0.00     0.004 C 
BRANCH   2   3
ATOM      3  C   UNL     1      37.270  -6.666  33.945  1.00  0.00     0.030 C 
BRANCH   3   4
ATOM      4  C   UNL     1      36.951  -5.807  34.344  1.00  0.00     0.159 C 
BRANCH   4   5
ATOM      5  N   UNL     1      36.527  -5.803  35.250  1.00  0.00    -0.199 NA
ATOM      6  H   UNL     1      35.910  -5.817  35.304  1.00  0.00     0.142 HD
BRANCH   5   7
ATOM      7  S   UNL     1      37.101  -5.776  36.069  1.00  0.00     0.241 S 
ATOM      8  O   UNL     1      37.537  -6.632  35.793  1.00  0.00    -0.207 OA
ATOM      9  O   UNL     1      36.664  -4.920  36.346  1.00  0.00    -0.207 OA
BRANCH   7  10
ATOM     10  C   UNL     1      37.673  -5.749  36.888  1.00  0.00     0.085 A 
ATOM     11  C   UNL     1      37.628  -6.494  37.555  1.00  0.00     0.022 A 
ATOM     12  C   UNL     1      38.292  -4.979  37.042  1.00  0.00     0.061 A 
ATOM     13  C   UNL     1      38.200  -6.468  38.374  1.00  0.00     0.004 A 
ATOM     14  C   UNL     1      38.864  -4.952  37.861  1.00  0.00     0.124 A 
ATOM     15  C   UNL     1      38.819  -5.697  38.528  1.00  0.00     0.039 A 
ATOM     16  F   UNL     1      39.483  -4.181  38.014  1.00  0.00    -0.207 F 
ENDBRANCH   7  10
ENDBRANCH   5   7
ENDBRANCH   4   5
BRANCH   4  17
ATOM     17  C   UNL     1      37.056  -4.951  33.838  1.00  0.00     0.238 C 
ATOM     18  O   UNL     1      37.963  -4.651  33.544  1.00  0.00    -0.273 OA
ATOM     19  N   UNL     1      36.252  -4.394  33.625  1.00  0.00    -0.343 N 
ATOM     20  H   UNL     1      35.689  -4.581  33.807  1.00  0.00     0.164 HD
BRANCH  19  21
ATOM     21  C   UNL     1      36.357  -3.539  33.119  1.00  0.00     0.175 C 
BRANCH  21  22
ATOM     22  C   UNL     1      36.410  -2.671  33.612  1.00  0.00     0.243 C 
ATOM     23  O   UNL     1      35.751  -2.465  34.336  1.00  0.00    -0.273 OA
ATOM     24  N   UNL     1      37.123  -2.007  33.382  1.00  0.00    -0.352 N 
ATOM     25  H   UNL     1      37.531  -2.134  32.934  1.00  0.00     0.163 HD
BRANCH  24  26
ATOM     26  C   UNL     1      37.175  -1.138  33.876  1.00  0.00     0.082 C 
ATOM     27  C   UNL     1      37.545  -0.847  34.758  1.00  0.00     0.025 C 
ATOM     28  C   UNL     1      36.880  -0.201  33.691  1.00  0.00     0.025 C 
ATOM     29  C   UNL     1      37.249   0.089  34.573  1.00  0.00     0.004 C 
ENDBRANCH  24  26
ENDBRANCH  21  22
BRANCH  21  30
ATOM     30  C   UNL     1      36.409  -3.551  32.121  1.00  0.00     0.072 C 
BRANCH  30  31
ATOM     31  C   UNL     1      35.621  -3.852  31.583  1.00  0.00    -0.020 A 
ATOM     32  C   UNL     1      35.653  -4.411  30.762  1.00  0.00     0.003 A 
ATOM     33  C   UNL     1      34.668  -3.642  31.776  1.00  0.00     0.087 A 
ATOM     34  C   UNL     1      34.714  -4.548  30.446  1.00  0.00     0.046 A 
ATOM     35  C   UNL     1      36.415  -4.816  30.256  1.00  0.00     0.010 A 
ATOM     36  N   UNL     1      34.110  -4.072  31.075  1.00  0.00    -0.361 N 
ATOM     37  C   UNL     1      34.537  -5.090  29.625  1.00  0.00     0.026 A 
ATOM     38  C   UNL     1      36.237  -5.358  29.435  1.00  0.00     0.001 A 
ATOM     39  H   UNL     1      33.491  -4.047  31.037  1.00  0.00     0.166 HD
ATOM     40  C   UNL     1      35.298  -5.496  29.119  1.00  0.00     0.002 A 
ENDBRANCH  30  31
ENDBRANCH  21  30
ENDBRANCH  19  21
ENDBRANCH   4  17
ENDBRANCH   3   4
ENDBRANCH   2   3
ENDBRANCH   1   2
BRANCH   1  41
ATOM     41  C   UNL     1      36.632  -8.348  32.019  1.00  0.00     0.115 C 
BRANCH  41  42
ATOM     42  N   UNL     1      37.061  -9.157  31.615  1.00  0.00    -0.363 N 
ATOM     43  H   UNL     1      37.674  -9.173  31.530  1.00  0.00     0.162 HD
BRANCH  42  44
ATOM     44  C   UNL     1      36.499  -9.940  31.348  1.00  0.00     0.166 C 
ATOM     45  S   UNL     1      35.519  -9.944  31.550  1.00  0.00    -0.041 S 
BRANCH  44  46
ATOM     46  N   UNL     1      36.917 -10.719  30.881  1.00  0.00    -0.362 N 
ATOM     47  H   UNL     1      37.216 -10.635  30.345  1.00  0.00     0.162 HD
BRANCH  46  48
ATOM     48  C   UNL     1      36.852 -11.634  31.279  1.00  0.00     0.127 C 
BRANCH  48  49
ATOM     49  C   UNL     1      37.434 -12.372  30.934  1.00  0.00     0.143 C 
BRANCH  49  50
ATOM     50  C   UNL     1      37.120 -13.320  30.981  1.00  0.00     0.305 C 
ATOM     51  O   UNL     1      37.099 -13.797  31.860  1.00  0.00    -0.252 OA
BRANCH  50  52
ATOM     52  O   UNL     1      36.826 -13.791  30.149  1.00  0.00    -0.481 OA
ATOM     53  H   UNL     1      36.262 -14.047  30.121  1.00  0.00     0.296 HD
ENDBRANCH  50  52
ENDBRANCH  49  50
ENDBRANCH  48  49
ENDBRANCH  46  48
ENDBRANCH  44  46
ENDBRANCH  42  44
ENDBRANCH  41  42
ENDBRANCH   1  41
TORSDOF 20
ENDMDL
MODEL 8
REMARK VINA RESULT:    -7.820      2.441      6.085
REMARK INTER + INTRA:           3.869
REMARK INTER:                 -17.147
REMARK INTRA:                  21.017
REMARK UNBOUND:                20.604
REMARK SMILES O=C(O)CCNC(=S)NCCCC[C@H](NS(=O)(=O)c1cccc(F)c1)C(=O)N[C@@H](Cc1c[nH]c2ccccc12)C(=O)NC1CCC1
REMARK SMILES IDX 11 1 12 2 13 3 14 4 15 5 16 7 17 8 18 9 19 10 20 11 25 12
REMARK SMILES IDX 21 13 23 14 22 15 24 16 26 17 27 18 28 19 29 21 40 22 41 23
REMARK SMILES IDX 42 24 43 26 44 27 46 28 45 29 30 30 31 31 39 32 32 33 34 34
REMARK SMILES IDX 38 35 33 36 35 37 37 38 36 40 10 41 9 42 7 44 8 45 6 46 5 48
REMARK SMILES IDX 4 49 2 50 1 51 3 52
REMARK H PARENT 15 6 28 20 42 25 33 39 9 43 6 47 3 53
REMARK Flexibility Score: inf
ROOT
ATOM      1  C   UNL     1      37.058  -7.778  34.816  1.00  0.00     0.021 C 
ENDROOT
BRANCH   1   2
ATOM      2  C   UNL     1      37.410  -6.896  34.504  1.00  0.00     0.004 C 
BRANCH   2   3
ATOM      3  C   UNL     1      36.889  -6.355  33.842  1.00  0.00     0.030 C 
BRANCH   3   4
ATOM      4  C   UNL     1      37.117  -5.393  33.693  1.00  0.00     0.159 C 
BRANCH   4   5
ATOM      5  N   UNL     1      37.629  -5.121  32.879  1.00  0.00    -0.199 NA
ATOM      6  H   UNL     1      38.222  -4.945  32.929  1.00  0.00     0.142 HD
BRANCH   5   7
ATOM      7  S   UNL     1      37.186  -5.131  31.982  1.00  0.00     0.241 S 
ATOM      8  O   UNL     1      37.070  -4.138  32.029  1.00  0.00    -0.207 OA
ATOM      9  O   UNL     1      37.301  -6.123  31.937  1.00  0.00    -0.207 OA
BRANCH   7  10
ATOM     10  C   UNL     1      36.742  -5.140  31.087  1.00  0.00     0.085 A 
ATOM     11  C   UNL     1      37.219  -5.526  30.296  1.00  0.00     0.022 A 
ATOM     12  C   UNL     1      35.822  -4.765  30.979  1.00  0.00     0.061 A 
ATOM     13  C   UNL     1      36.777  -5.536  29.400  1.00  0.00     0.004 A 
ATOM     14  C   UNL     1      35.379  -4.774  30.083  1.00  0.00     0.124 A 
ATOM     15  C   UNL     1      35.856  -5.160  29.293  1.00  0.00     0.039 A 
ATOM     16  F   UNL     1      34.458  -4.398  29.976  1.00  0.00    -0.207 F 
ENDBRANCH   7  10
ENDBRANCH   5   7
ENDBRANCH   4   5
BRANCH   4  17
ATOM     17  C   UNL     1      36.832  -4.703  34.358  1.00  0.00     0.238 C 
ATOM     18  O   UNL     1      35.867  -4.608  34.599  1.00  0.00    -0.273 OA
ATOM     19  N   UNL     1      37.514  -4.107  34.783  1.00  0.00    -0.343 N 
ATOM     20  H   UNL     1      38.113  -4.166  34.634  1.00  0.00     0.164 HD
BRANCH  19  21
ATOM     21  C   UNL     1      37.229  -3.417  35.448  1.00  0.00     0.175 C 
BRANCH  21  22
ATOM     22  C   UNL     1      37.029  -2.485  35.145  1.00  0.00     0.243 C 
ATOM     23  O   UNL     1      36.322  -1.950  35.609  1.00  0.00    -0.273 OA
ATOM     24  N   UNL     1      37.534  -2.087  34.379  1.00  0.00    -0.352 N 
ATOM     25  H   UNL     1      37.972  -2.419  34.092  1.00  0.00     0.163 HD
BRANCH  24  26
ATOM     26  C   UNL     1      37.333  -1.155  34.077  1.00  0.00     0.082 C 
ATOM     27  C   UNL     1      36.812  -0.752  33.325  1.00  0.00     0.025 C 
ATOM     28  C   UNL     1      37.570  -0.240  34.402  1.00  0.00     0.025 C 
ATOM     29  C   UNL     1      37.049   0.162  33.651  1.00  0.00     0.004 C 
ENDBRANCH  24  26
ENDBRANCH  21  22
BRANCH  21  30
ATOM     30  C   UNL     1      37.146  -3.658  36.414  1.00  0.00     0.072 C 
BRANCH  30  31
ATOM     31  C   UNL     1      37.957  -3.926  36.935  1.00  0.00    -0.020 A 
ATOM     32  C   UNL     1      37.997  -4.638  37.627  1.00  0.00     0.003 A 
ATOM     33  C   UNL     1      38.863  -3.525  36.851  1.00  0.00     0.087 A 
ATOM     34  C   UNL     1      38.935  -4.678  37.972  1.00  0.00     0.046 A 
ATOM     35  C   UNL     1      37.304  -5.260  37.991  1.00  0.00     0.010 A 
ATOM     36  N   UNL     1      39.465  -3.989  37.491  1.00  0.00    -0.361 N 
ATOM     37  C   UNL     1      39.179  -5.339  38.681  1.00  0.00     0.026 A 
ATOM     38  C   UNL     1      37.548  -5.921  38.700  1.00  0.00     0.001 A 
ATOM     39  H   UNL     1      40.069  -3.870  37.575  1.00  0.00     0.166 HD
ATOM     40  C   UNL     1      38.485  -5.961  39.046  1.00  0.00     0.002 A 
ENDBRANCH  30  31
ENDBRANCH  21  30
ENDBRANCH  19  21
ENDBRANCH   4  17
ENDBRANCH   3   4
ENDBRANCH   2   3
ENDBRANCH   1   2
BRANCH   1  41
ATOM     41  C   UNL     1      37.386  -8.624  34.397  1.00  0.00     0.115 C 
BRANCH  41  42
ATOM     42  N   UNL     1      36.733  -9.317  34.091  1.00  0.00    -0.363 N 
ATOM     43  H   UNL     1      36.177  -9.360  34.361  1.00  0.00     0.162 HD
BRANCH  42  44
ATOM     44  C   UNL     1      36.976  -9.942  33.349  1.00  0.00     0.166 C 
ATOM     45  S   UNL     1      37.539 -10.747  33.538  1.00  0.00    -0.041 S 
BRANCH  44  46
ATOM     46  N   UNL     1      36.658  -9.761  32.419  1.00  0.00    -0.362 N 
ATOM     47  H   UNL     1      37.067  -9.661  31.964  1.00  0.00     0.162 HD
BRANCH  46  48
ATOM     48  C   UNL     1      35.678  -9.743  32.220  1.00  0.00     0.127 C 
BRANCH  48  49
ATOM     49  C   UNL     1      35.358  -9.548  31.292  1.00  0.00     0.143 C 
BRANCH  49  50
ATOM     50  C   UNL     1      34.861  -8.702  31.102  1.00  0.00     0.305 C 
ATOM     51  O   UNL     1      34.652  -8.067  31.846  1.00  0.00    -0.252 OA
BRANCH  50  52
ATOM     52  O   UNL     1      34.573  -8.491  30.168  1.00  0.00    -0.481 OA
ATOM     53  H   UNL     1      34.932  -8.653  29.689  1.00  0.00     0.296 HD
ENDBRANCH  50  52
ENDBRANCH  49  50
ENDBRANCH  48  49
ENDBRANCH  46  48
ENDBRANCH  44  46
ENDBRANCH  42  44
ENDBRANCH  41  42
ENDBRANCH   1  41
TORSDOF 20
ENDMDL
MODEL 9
REMARK VINA RESULT:    -7.770      2.074      4.727
REMARK INTER + INTRA:           3.975
REMARK INTER:                 -16.264
REMARK INTRA:                  20.240
REMARK UNBOUND:                20.604
REMARK SMILES O=C(O)CCNC(=S)NCCCC[C@H](NS(=O)(=O)c1cccc(F)c1)C(=O)N[C@@H](Cc1c[nH]c2ccccc12)C(=O)NC1CCC1
REMARK SMILES IDX 11 1 12 2 13 3 14 4 15 5 16 7 17 8 18 9 19 10 20 11 25 12
REMARK SMILES IDX 21 13 23 14 22 15 24 16 26 17 27 18 28 19 29 21 40 22 41 23
REMARK SMILES IDX 42 24 43 26 44 27 46 28 45 29 30 30 31 31 39 32 32 33 34 34
REMARK SMILES IDX 38 35 33 36 35 37 37 38 36 40 10 41 9 42 7 44 8 45 6 46 5 48
REMARK SMILES IDX 4 49 2 50 1 51 3 52
REMARK H PARENT 15 6 28 20 42 25 33 39 9 43 6 47 3 53
REMARK Flexibility Score: inf
ROOT
ATOM      1  C   UNL     1      38.233  -7.396  36.973  1.00  0.00     0.021 C 
ENDROOT
BRANCH   1   2
ATOM      2  C   UNL     1      37.436  -7.311  36.374  1.00  0.00     0.004 C 
BRANCH   2   3
ATOM      3  C   UNL     1      37.535  -6.905  35.465  1.00  0.00     0.030 C 
BRANCH   3   4
ATOM      4  C   UNL     1      36.730  -6.568  34.978  1.00  0.00     0.159 C 
BRANCH   4   5
ATOM      5  N   UNL     1      36.347  -5.672  35.204  1.00  0.00    -0.199 NA
ATOM      6  H   UNL     1      36.062  -5.584  35.747  1.00  0.00     0.142 HD
BRANCH   5   7
ATOM      7  S   UNL     1      36.424  -4.917  34.552  1.00  0.00     0.241 S 
ATOM      8  O   UNL     1      35.432  -4.926  34.424  1.00  0.00    -0.207 OA
ATOM      9  O   UNL     1      37.415  -4.907  34.680  1.00  0.00    -0.207 OA
BRANCH   7  10
ATOM     10  C   UNL     1      36.500  -4.162  33.901  1.00  0.00     0.085 A 
ATOM     11  C   UNL     1      37.402  -3.811  33.646  1.00  0.00     0.022 A 
ATOM     12  C   UNL     1      35.677  -3.757  33.505  1.00  0.00     0.061 A 
ATOM     13  C   UNL     1      37.479  -3.056  32.995  1.00  0.00     0.004 A 
ATOM     14  C   UNL     1      35.753  -3.003  32.854  1.00  0.00     0.124 A 
ATOM     15  C   UNL     1      36.654  -2.651  32.598  1.00  0.00     0.039 A 
ATOM     16  F   UNL     1      34.928  -2.598  32.457  1.00  0.00    -0.207 F 
ENDBRANCH   7  10
ENDBRANCH   5   7
ENDBRANCH   4   5
BRANCH   4  17
ATOM     17  C   UNL     1      36.307  -7.125  34.264  1.00  0.00     0.238 C 
ATOM     18  O   UNL     1      35.377  -7.470  34.383  1.00  0.00    -0.273 OA
ATOM     19  N   UNL     1      36.816  -7.339  33.429  1.00  0.00    -0.343 N 
ATOM     20  H   UNL     1      37.394  -7.126  33.355  1.00  0.00     0.164 HD
BRANCH  19  21
ATOM     21  C   UNL     1      36.394  -7.897  32.716  1.00  0.00     0.175 C 
BRANCH  21  22
ATOM     22  C   UNL     1      36.560  -8.883  32.688  1.00  0.00     0.243 C 
ATOM     23  O   UNL     1      37.484  -9.239  32.828  1.00  0.00    -0.273 OA
ATOM     24  N   UNL     1      35.802  -9.514  32.521  1.00  0.00    -0.352 N 
ATOM     25  H   UNL     1      35.229  -9.294  32.434  1.00  0.00     0.163 HD
BRANCH  24  26
ATOM     26  C   UNL     1      35.969 -10.500  32.494  1.00  0.00     0.082 C 
ATOM     27  C   UNL     1      36.152 -11.167  31.772  1.00  0.00     0.025 C 
ATOM     28  C   UNL     1      36.021 -11.227  33.178  1.00  0.00     0.025 C 
ATOM     29  C   UNL     1      36.205 -11.893  32.456  1.00  0.00     0.004 C 
ENDBRANCH  24  26
ENDBRANCH  21  22
BRANCH  21  30
ATOM     30  C   UNL     1      35.805  -7.470  32.030  1.00  0.00     0.072 C 
BRANCH  30  31
ATOM     31  C   UNL     1      36.190  -6.817  31.377  1.00  0.00    -0.020 A 
ATOM     32  C   UNL     1      35.675  -6.167  30.829  1.00  0.00     0.003 A 
ATOM     33  C   UNL     1      37.155  -6.704  31.165  1.00  0.00     0.087 A 
ATOM     34  C   UNL     1      36.327  -5.650  30.274  1.00  0.00     0.046 A 
ATOM     35  C   UNL     1      34.696  -5.975  30.759  1.00  0.00     0.010 A 
ATOM     36  N   UNL     1      37.238  -5.984  30.484  1.00  0.00    -0.361 N 
ATOM     37  C   UNL     1      35.999  -4.941  29.649  1.00  0.00     0.026 A 
ATOM     38  C   UNL     1      34.369  -5.266  30.135  1.00  0.00     0.001 A 
ATOM     39  H   UNL     1      37.768  -5.779  30.234  1.00  0.00     0.166 HD
ATOM     40  C   UNL     1      35.020  -4.749  29.580  1.00  0.00     0.002 A 
ENDBRANCH  30  31
ENDBRANCH  21  30
ENDBRANCH  19  21
ENDBRANCH   4  17
ENDBRANCH   3   4
ENDBRANCH   2   3
ENDBRANCH   1   2
BRANCH   1  41
ATOM     41  C   UNL     1      38.114  -7.392  37.965  1.00  0.00     0.115 C 
BRANCH  41  42
ATOM     42  N   UNL     1      38.552  -6.682  38.518  1.00  0.00    -0.363 N 
ATOM     43  H   UNL     1      38.891  -6.241  38.245  1.00  0.00     0.162 HD
BRANCH  42  44
ATOM     44  C   UNL     1      38.443  -6.684  39.512  1.00  0.00     0.166 C 
ATOM     45  S   UNL     1      38.906  -7.378  40.065  1.00  0.00    -0.041 S 
BRANCH  44  46
ATOM     46  N   UNL     1      37.871  -5.993  39.954  1.00  0.00    -0.362 N 
ATOM     47  H   UNL     1      37.281  -5.920  39.777  1.00  0.00     0.162 HD
BRANCH  46  48
ATOM     48  C   UNL     1      38.249  -5.420  40.680  1.00  0.00     0.127 C 
BRANCH  48  49
ATOM     49  C   UNL     1      37.686  -4.710  41.103  1.00  0.00     0.143 C 
BRANCH  49  50
ATOM     50  C   UNL     1      38.105  -4.030  41.703  1.00  0.00     0.305 C 
ATOM     51  O   UNL     1      37.887  -4.022  42.680  1.00  0.00    -0.252 OA
BRANCH  50  52
ATOM     52  O   UNL     1      38.743  -3.357  41.329  1.00  0.00    -0.481 OA
ATOM     53  H   UNL     1      39.319  -3.318  41.554  1.00  0.00     0.296 HD
ENDBRANCH  50  52
ENDBRANCH  49  50
ENDBRANCH  48  49
ENDBRANCH  46  48
ENDBRANCH  44  46
ENDBRANCH  42  44
ENDBRANCH  41  42
ENDBRANCH   1  41
TORSDOF 20
ENDMDL
