MODEL 1
REMARK VINA RESULT:    -9.219      0.000      0.000
REMARK INTER + INTRA:           0.483
REMARK INTER:                 -19.727
REMARK INTRA:                  20.211
REMARK UNBOUND:                20.211
REMARK SMILES O=C(O)CCNC(=S)NCCCC[C@H](NS(=O)(=O)c1cccc(F)c1)C(=O)N[C@@H](Cc1c[nH]c2ccccc12)C(=O)NC1CCC1
REMARK SMILES IDX 11 1 12 2 13 3 14 4 15 5 16 7 17 8 18 9 19 10 20 11 25 12
REMARK SMILES IDX 21 13 23 14 22 15 24 16 26 17 27 18 28 19 29 21 40 22 41 23
REMARK SMILES IDX 42 24 43 26 44 27 46 28 45 29 30 30 31 31 39 32 32 33 34 34
REMARK SMILES IDX 38 35 33 36 35 37 37 38 36 40 10 41 9 42 7 44 8 45 6 46 5 48
REMARK SMILES IDX 4 49 2 50 1 51 3 52
REMARK H PARENT 15 6 28 20 42 25 33 39 9 43 6 47 3 53
REMARK Flexibility Score: inf
ROOT
ATOM      1  C   UNL     1      53.972  36.875 -24.761  1.00  0.00     0.021 C 
ENDROOT
BRANCH   1   2
ATOM      2  C   UNL     1      53.862  37.037 -25.742  1.00  0.00     0.004 C 
BRANCH   2   3
ATOM      3  C   UNL     1      53.652  36.274 -26.355  1.00  0.00     0.030 C 
BRANCH   3   4
ATOM      4  C   UNL     1      53.287  36.452 -27.268  1.00  0.00     0.159 C 
BRANCH   4   5
ATOM      5  N   UNL     1      52.302  36.400 -27.432  1.00  0.00    -0.199 NA
ATOM      6  H   UNL     1      51.932  36.865 -27.255  1.00  0.00     0.142 HD
BRANCH   5   7
ATOM      7  S   UNL     1      51.912  35.596 -27.881  1.00  0.00     0.241 S 
ATOM      8  O   UNL     1      51.659  36.159 -28.669  1.00  0.00    -0.207 OA
ATOM      9  O   UNL     1      52.165  35.033 -27.095  1.00  0.00    -0.207 OA
BRANCH   7  10
ATOM     10  C   UNL     1      51.523  34.793 -28.331  1.00  0.00     0.085 A 
ATOM     11  C   UNL     1      51.901  33.885 -28.150  1.00  0.00     0.022 A 
ATOM     12  C   UNL     1      50.755  34.896 -28.963  1.00  0.00     0.061 A 
ATOM     13  C   UNL     1      51.512  33.081 -28.599  1.00  0.00     0.004 A 
ATOM     14  C   UNL     1      50.365  34.093 -29.413  1.00  0.00     0.124 A 
ATOM     15  C   UNL     1      50.743  33.185 -29.232  1.00  0.00     0.039 A 
ATOM     16  F   UNL     1      49.597  34.197 -30.046  1.00  0.00    -0.207 F 
ENDBRANCH   7  10
ENDBRANCH   5   7
ENDBRANCH   4   5
BRANCH   4  17
ATOM     17  C   UNL     1      53.906  36.683 -28.018  1.00  0.00     0.238 C 
ATOM     18  O   UNL     1      53.853  37.582 -28.453  1.00  0.00    -0.273 OA
ATOM     19  N   UNL     1      54.579  36.014 -28.335  1.00  0.00    -0.343 N 
ATOM     20  H   UNL     1      54.612  35.456 -28.065  1.00  0.00     0.164 HD
BRANCH  19  21
ATOM     21  C   UNL     1      55.198  36.245 -29.085  1.00  0.00     0.175 C 
BRANCH  21  22
ATOM     22  C   UNL     1      56.113  36.597 -28.887  1.00  0.00     0.243 C 
ATOM     23  O   UNL     1      56.526  37.282 -29.487  1.00  0.00    -0.273 OA
ATOM     24  N   UNL     1      56.616  36.264 -28.089  1.00  0.00    -0.352 N 
ATOM     25  H   UNL     1      56.360  35.840 -27.717  1.00  0.00     0.163 HD
BRANCH  24  26
ATOM     26  C   UNL     1      57.531  36.617 -27.891  1.00  0.00     0.082 C 
ATOM     27  C   UNL     1      58.454  36.410 -28.215  1.00  0.00     0.025 C 
ATOM     28  C   UNL     1      57.901  37.323 -27.288  1.00  0.00     0.025 C 
ATOM     29  C   UNL     1      58.824  37.116 -27.612  1.00  0.00     0.004 C 
ENDBRANCH  24  26
ENDBRANCH  21  22
BRANCH  21  30
ATOM     30  C   UNL     1      54.903  36.123 -30.032  1.00  0.00     0.072 C 
BRANCH  30  31
ATOM     31  C   UNL     1      54.652  35.214 -30.365  1.00  0.00    -0.020 A 
ATOM     32  C   UNL     1      53.959  35.014 -31.048  1.00  0.00     0.003 A 
ATOM     33  C   UNL     1      55.053  34.353 -30.070  1.00  0.00     0.087 A 
ATOM     34  C   UNL     1      53.931  34.022 -31.176  1.00  0.00     0.046 A 
ATOM     35  C   UNL     1      53.345  35.603 -31.574  1.00  0.00     0.010 A 
ATOM     36  N   UNL     1      54.608  33.619 -30.570  1.00  0.00    -0.361 N 
ATOM     37  C   UNL     1      53.290  33.620 -31.830  1.00  0.00     0.026 A 
ATOM     38  C   UNL     1      52.704  35.200 -32.228  1.00  0.00     0.001 A 
ATOM     39  H   UNL     1      54.732  33.013 -30.514  1.00  0.00     0.166 HD
ATOM     40  C   UNL     1      52.677  34.209 -32.356  1.00  0.00     0.002 A 
ENDBRANCH  30  31
ENDBRANCH  21  30
ENDBRANCH  19  21
ENDBRANCH   4  17
ENDBRANCH   3   4
ENDBRANCH   2   3
ENDBRANCH   1   2
BRANCH   1  41
ATOM     41  C   UNL     1      54.810  37.162 -24.298  1.00  0.00     0.115 C 
BRANCH  41  42
ATOM     42  N   UNL     1      54.771  37.499 -23.357  1.00  0.00    -0.363 N 
ATOM     43  H   UNL     1      54.247  37.447 -23.031  1.00  0.00     0.162 HD
BRANCH  42  44
ATOM     44  C   UNL     1      55.578  37.920 -22.943  1.00  0.00     0.166 C 
ATOM     45  S   UNL     1      55.912  37.595 -22.057  1.00  0.00    -0.041 S 
BRANCH  44  46
ATOM     46  N   UNL     1      56.051  38.664 -23.412  1.00  0.00    -0.362 N 
ATOM     47  H   UNL     1      56.115  38.651 -24.029  1.00  0.00     0.162 HD
BRANCH  46  48
ATOM     48  C   UNL     1      56.419  39.432 -22.889  1.00  0.00     0.127 C 
BRANCH  48  49
ATOM     49  C   UNL     1      56.629  40.296 -23.347  1.00  0.00     0.143 C 
BRANCH  49  50
ATOM     50  C   UNL     1      56.764  41.128 -22.809  1.00  0.00     0.305 C 
ATOM     51  O   UNL     1      57.584  41.233 -22.247  1.00  0.00    -0.252 OA
BRANCH  50  52
ATOM     52  O   UNL     1      56.078  41.856 -22.834  1.00  0.00    -0.481 OA
ATOM     53  H   UNL     1      55.484  41.726 -22.712  1.00  0.00     0.296 HD
ENDBRANCH  50  52
ENDBRANCH  49  50
ENDBRANCH  48  49
ENDBRANCH  46  48
ENDBRANCH  44  46
ENDBRANCH  42  44
ENDBRANCH  41  42
ENDBRANCH   1  41
TORSDOF 20
ENDMDL
MODEL 2
REMARK VINA RESULT:    -9.140      1.469      1.807
REMARK INTER + INTRA:           0.651
REMARK INTER:                 -19.314
REMARK INTRA:                  19.965
REMARK UNBOUND:                20.211
REMARK SMILES O=C(O)CCNC(=S)NCCCC[C@H](NS(=O)(=O)c1cccc(F)c1)C(=O)N[C@@H](Cc1c[nH]c2ccccc12)C(=O)NC1CCC1
REMARK SMILES IDX 11 1 12 2 13 3 14 4 15 5 16 7 17 8 18 9 19 10 20 11 25 12
REMARK SMILES IDX 21 13 23 14 22 15 24 16 26 17 27 18 28 19 29 21 40 22 41 23
REMARK SMILES IDX 42 24 43 26 44 27 46 28 45 29 30 30 31 31 39 32 32 33 34 34
REMARK SMILES IDX 38 35 33 36 35 37 37 38 36 40 10 41 9 42 7 44 8 45 6 46 5 48
REMARK SMILES IDX 4 49 2 50 1 51 3 52
REMARK H PARENT 15 6 28 20 42 25 33 39 9 43 6 47 3 53
REMARK Flexibility Score: inf
ROOT
ATOM      1  C   UNL     1      54.455  36.977 -24.815  1.00  0.00     0.021 C 
ENDROOT
BRANCH   1   2
ATOM      2  C   UNL     1      54.227  37.158 -25.772  1.00  0.00     0.004 C 
BRANCH   2   3
ATOM      3  C   UNL     1      54.022  36.398 -26.390  1.00  0.00     0.030 C 
BRANCH   3   4
ATOM      4  C   UNL     1      53.625  36.578 -27.289  1.00  0.00     0.159 C 
BRANCH   4   5
ATOM      5  N   UNL     1      52.632  36.596 -27.403  1.00  0.00    -0.199 NA
ATOM      6  H   UNL     1      52.308  37.096 -27.230  1.00  0.00     0.142 HD
BRANCH   5   7
ATOM      7  S   UNL     1      52.159  35.806 -27.795  1.00  0.00     0.241 S 
ATOM      8  O   UNL     1      52.395  35.264 -26.988  1.00  0.00    -0.207 OA
ATOM      9  O   UNL     1      51.925  36.348 -28.602  1.00  0.00    -0.207 OA
BRANCH   7  10
ATOM     10  C   UNL     1      51.688  35.017 -28.187  1.00  0.00     0.085 A 
ATOM     11  C   UNL     1      52.001  34.091 -27.976  1.00  0.00     0.022 A 
ATOM     12  C   UNL     1      50.902  35.152 -28.791  1.00  0.00     0.061 A 
ATOM     13  C   UNL     1      51.530  33.301 -28.367  1.00  0.00     0.004 A 
ATOM     14  C   UNL     1      50.430  34.363 -29.183  1.00  0.00     0.124 A 
ATOM     15  C   UNL     1      50.744  33.436 -28.971  1.00  0.00     0.039 A 
ATOM     16  F   UNL     1      49.644  34.498 -29.787  1.00  0.00    -0.207 F 
ENDBRANCH   7  10
ENDBRANCH   5   7
ENDBRANCH   4   5
BRANCH   4  17
ATOM     17  C   UNL     1      54.220  36.741 -28.075  1.00  0.00     0.238 C 
ATOM     18  O   UNL     1      54.226  37.634 -28.523  1.00  0.00    -0.273 OA
ATOM     19  N   UNL     1      54.811  36.008 -28.415  1.00  0.00    -0.343 N 
ATOM     20  H   UNL     1      54.808  35.453 -28.137  1.00  0.00     0.164 HD
BRANCH  19  21
ATOM     21  C   UNL     1      55.407  36.170 -29.201  1.00  0.00     0.175 C 
BRANCH  21  22
ATOM     22  C   UNL     1      56.345  36.486 -29.061  1.00  0.00     0.243 C 
ATOM     23  O   UNL     1      56.731  37.190 -29.657  1.00  0.00    -0.273 OA
ATOM     24  N   UNL     1      56.898  36.098 -28.323  1.00  0.00    -0.352 N 
ATOM     25  H   UNL     1      56.659  35.663 -27.953  1.00  0.00     0.163 HD
BRANCH  24  26
ATOM     26  C   UNL     1      57.837  36.415 -28.182  1.00  0.00     0.082 C 
ATOM     27  C   UNL     1      58.733  36.150 -28.538  1.00  0.00     0.025 C 
ATOM     28  C   UNL     1      58.267  37.127 -27.628  1.00  0.00     0.025 C 
ATOM     29  C   UNL     1      59.163  36.862 -27.983  1.00  0.00     0.004 C 
ENDBRANCH  24  26
ENDBRANCH  21  22
BRANCH  21  30
ATOM     30  C   UNL     1      55.064  36.017 -30.128  1.00  0.00     0.072 C 
BRANCH  30  31
ATOM     31  C   UNL     1      54.745  35.109 -30.400  1.00  0.00    -0.020 A 
ATOM     32  C   UNL     1      53.999  34.915 -31.027  1.00  0.00     0.003 A 
ATOM     33  C   UNL     1      55.120  34.241 -30.089  1.00  0.00     0.087 A 
ATOM     34  C   UNL     1      53.913  33.922 -31.104  1.00  0.00     0.046 A 
ATOM     35  C   UNL     1      53.384  35.512 -31.541  1.00  0.00     0.010 A 
ATOM     36  N   UNL     1      54.606  33.511 -30.523  1.00  0.00    -0.361 N 
ATOM     37  C   UNL     1      53.210  33.526 -31.695  1.00  0.00     0.026 A 
ATOM     38  C   UNL     1      52.681  35.116 -32.133  1.00  0.00     0.001 A 
ATOM     39  H   UNL     1      54.702  32.902 -30.446  1.00  0.00     0.166 HD
ATOM     40  C   UNL     1      52.595  34.123 -32.210  1.00  0.00     0.002 A 
ENDBRANCH  30  31
ENDBRANCH  21  30
ENDBRANCH  19  21
ENDBRANCH   4  17
ENDBRANCH   3   4
ENDBRANCH   2   3
ENDBRANCH   1   2
BRANCH   1  41
ATOM     41  C   UNL     1      55.042  37.611 -24.312  1.00  0.00     0.115 C 
BRANCH  41  42
ATOM     42  N   UNL     1      55.309  37.406 -23.371  1.00  0.00    -0.363 N 
ATOM     43  H   UNL     1      54.949  37.046 -23.017  1.00  0.00     0.162 HD
BRANCH  42  44
ATOM     44  C   UNL     1      56.158  37.781 -22.998  1.00  0.00     0.166 C 
ATOM     45  S   UNL     1      56.291  38.772 -22.957  1.00  0.00    -0.041 S 
BRANCH  44  46
ATOM     46  N   UNL     1      56.874  37.167 -22.668  1.00  0.00    -0.362 N 
ATOM     47  H   UNL     1      57.219  36.847 -23.072  1.00  0.00     0.162 HD
BRANCH  46  48
ATOM     48  C   UNL     1      57.033  37.066 -21.686  1.00  0.00     0.127 C 
BRANCH  48  49
ATOM     49  C   UNL     1      57.582  36.303 -21.343  1.00  0.00     0.143 C 
BRANCH  49  50
ATOM     50  C   UNL     1      57.957  36.333 -20.417  1.00  0.00     0.305 C 
ATOM     51  O   UNL     1      58.738  36.925 -20.213  1.00  0.00    -0.252 OA
BRANCH  50  52
ATOM     52  O   UNL     1      57.553  35.773 -19.695  1.00  0.00    -0.481 OA
ATOM     53  H   UNL     1      57.845  35.710 -19.151  1.00  0.00     0.296 HD
ENDBRANCH  50  52
ENDBRANCH  49  50
ENDBRANCH  48  49
ENDBRANCH  46  48
ENDBRANCH  44  46
ENDBRANCH  42  44
ENDBRANCH  41  42
ENDBRANCH   1  41
TORSDOF 20
ENDMDL
MODEL 3
REMARK VINA RESULT:    -8.328      2.621      6.202
REMARK INTER + INTRA:           2.390
REMARK INTER:                 -18.972
REMARK INTRA:                  21.362
REMARK UNBOUND:                20.211
REMARK SMILES O=C(O)CCNC(=S)NCCCC[C@H](NS(=O)(=O)c1cccc(F)c1)C(=O)N[C@@H](Cc1c[nH]c2ccccc12)C(=O)NC1CCC1
REMARK SMILES IDX 11 1 12 2 13 3 14 4 15 5 16 7 17 8 18 9 19 10 20 11 25 12
REMARK SMILES IDX 21 13 23 14 22 15 24 16 26 17 27 18 28 19 29 21 40 22 41 23
REMARK SMILES IDX 42 24 43 26 44 27 46 28 45 29 30 30 31 31 39 32 32 33 34 34
REMARK SMILES IDX 38 35 33 36 35 37 37 38 36 40 10 41 9 42 7 44 8 45 6 46 5 48
REMARK SMILES IDX 4 49 2 50 1 51 3 52
REMARK H PARENT 15 6 28 20 42 25 33 39 9 43 6 47 3 53
REMARK Flexibility Score: inf
ROOT
ATOM      1  C   UNL     1      52.939  36.013 -26.781  1.00  0.00     0.021 C 
ENDROOT
BRANCH   1   2
ATOM      2  C   UNL     1      53.601  36.755 -26.896  1.00  0.00     0.004 C 
BRANCH   2   3
ATOM      3  C   UNL     1      54.493  36.702 -26.448  1.00  0.00     0.030 C 
BRANCH   3   4
ATOM      4  C   UNL     1      55.177  37.413 -26.609  1.00  0.00     0.159 C 
BRANCH   4   5
ATOM      5  N   UNL     1      55.410  38.057 -25.881  1.00  0.00    -0.199 NA
ATOM      6  H   UNL     1      55.397  38.668 -25.989  1.00  0.00     0.142 HD
BRANCH   5   7
ATOM      7  S   UNL     1      55.666  37.716 -24.975  1.00  0.00     0.241 S 
ATOM      8  O   UNL     1      56.458  37.252 -25.374  1.00  0.00    -0.207 OA
ATOM      9  O   UNL     1      54.875  38.180 -24.577  1.00  0.00    -0.207 OA
BRANCH   7  10
ATOM     10  C   UNL     1      55.922  37.375 -24.071  1.00  0.00     0.085 A 
ATOM     11  C   UNL     1      55.213  37.090 -23.425  1.00  0.00     0.022 A 
ATOM     12  C   UNL     1      56.886  37.319 -23.811  1.00  0.00     0.061 A 
ATOM     13  C   UNL     1      55.468  36.749 -22.521  1.00  0.00     0.004 A 
ATOM     14  C   UNL     1      57.142  36.978 -22.907  1.00  0.00     0.124 A 
ATOM     15  C   UNL     1      56.433  36.693 -22.261  1.00  0.00     0.039 A 
ATOM     16  F   UNL     1      58.106  36.922 -22.648  1.00  0.00    -0.207 F 
ENDBRANCH   7  10
ENDBRANCH   5   7
ENDBRANCH   4   5
BRANCH   4  17
ATOM     17  C   UNL     1      55.627  37.482 -27.499  1.00  0.00     0.238 C 
ATOM     18  O   UNL     1      55.729  38.373 -27.942  1.00  0.00    -0.273 OA
ATOM     19  N   UNL     1      55.975  36.659 -27.948  1.00  0.00    -0.343 N 
ATOM     20  H   UNL     1      55.912  36.106 -27.674  1.00  0.00     0.164 HD
BRANCH  19  21
ATOM     21  C   UNL     1      56.425  36.727 -28.838  1.00  0.00     0.175 C 
BRANCH  21  22
ATOM     22  C   UNL     1      57.423  36.691 -28.897  1.00  0.00     0.243 C 
ATOM     23  O   UNL     1      57.894  37.112 -29.672  1.00  0.00    -0.273 OA
ATOM     24  N   UNL     1      57.951  36.234 -28.181  1.00  0.00    -0.352 N 
ATOM     25  H   UNL     1      57.659  35.973 -27.700  1.00  0.00     0.163 HD
BRANCH  24  26
ATOM     26  C   UNL     1      58.949  36.198 -28.240  1.00  0.00     0.082 C 
ATOM     27  C   UNL     1      59.701  36.721 -27.839  1.00  0.00     0.025 C 
ATOM     28  C   UNL     1      59.608  35.625 -28.727  1.00  0.00     0.025 C 
ATOM     29  C   UNL     1      60.359  36.147 -28.325  1.00  0.00     0.004 C 
ENDBRANCH  24  26
ENDBRANCH  21  22
BRANCH  21  30
ATOM     30  C   UNL     1      55.879  36.831 -29.668  1.00  0.00     0.072 C 
BRANCH  30  31
ATOM     31  C   UNL     1      55.321  36.070 -29.998  1.00  0.00    -0.020 A 
ATOM     32  C   UNL     1      54.550  36.138 -30.622  1.00  0.00     0.003 A 
ATOM     33  C   UNL     1      55.440  35.112 -29.760  1.00  0.00     0.087 A 
ATOM     34  C   UNL     1      54.192  35.216 -30.770  1.00  0.00     0.046 A 
ATOM     35  C   UNL     1      54.124  36.919 -31.079  1.00  0.00     0.010 A 
ATOM     36  N   UNL     1      54.744  34.586 -30.236  1.00  0.00    -0.361 N 
ATOM     37  C   UNL     1      53.407  35.076 -31.374  1.00  0.00     0.026 A 
ATOM     38  C   UNL     1      53.339  36.778 -31.683  1.00  0.00     0.001 A 
ATOM     39  H   UNL     1      54.667  33.971 -30.205  1.00  0.00     0.166 HD
ATOM     40  C   UNL     1      52.981  35.857 -31.830  1.00  0.00     0.002 A 
ENDBRANCH  30  31
ENDBRANCH  21  30
ENDBRANCH  19  21
ENDBRANCH   4  17
ENDBRANCH   3   4
ENDBRANCH   2   3
ENDBRANCH   1   2
BRANCH   1  41
ATOM     41  C   UNL     1      52.491  35.615 -27.581  1.00  0.00     0.115 C 
BRANCH  41  42
ATOM     42  N   UNL     1      51.585  35.199 -27.492  1.00  0.00    -0.363 N 
ATOM     43  H   UNL     1      51.155  35.467 -27.134  1.00  0.00     0.162 HD
BRANCH  42  44
ATOM     44  C   UNL     1      51.373  34.353 -27.979  1.00  0.00     0.166 C 
ATOM     45  S   UNL     1      51.544  33.469 -27.544  1.00  0.00    -0.041 S 
BRANCH  44  46
ATOM     46  N   UNL     1      50.990  34.390 -28.902  1.00  0.00    -0.362 N 
ATOM     47  H   UNL     1      50.902  34.937 -29.180  1.00  0.00     0.162 HD
BRANCH  46  48
ATOM     48  C   UNL     1      50.750  33.544 -29.378  1.00  0.00     0.127 C 
BRANCH  48  49
ATOM     49  C   UNL     1      50.201  33.578 -30.214  1.00  0.00     0.143 C 
BRANCH  49  50
ATOM     50  C   UNL     1      50.449  33.011 -30.999  1.00  0.00     0.305 C 
ATOM     51  O   UNL     1      50.756  32.069 -30.859  1.00  0.00    -0.252 OA
BRANCH  50  52
ATOM     52  O   UNL     1      50.390  33.385 -31.924  1.00  0.00    -0.481 OA
ATOM     53  H   UNL     1      50.197  33.968 -32.011  1.00  0.00     0.296 HD
ENDBRANCH  50  52
ENDBRANCH  49  50
ENDBRANCH  48  49
ENDBRANCH  46  48
ENDBRANCH  44  46
ENDBRANCH  42  44
ENDBRANCH  41  42
ENDBRANCH   1  41
TORSDOF 20
ENDMDL
MODEL 4
REMARK VINA RESULT:    -8.194      2.994      5.787
REMARK INTER + INTRA:           2.677
REMARK INTER:                 -19.732
REMARK INTRA:                  22.409
REMARK UNBOUND:                20.211
REMARK SMILES O=C(O)CCNC(=S)NCCCC[C@H](NS(=O)(=O)c1cccc(F)c1)C(=O)N[C@@H](Cc1c[nH]c2ccccc12)C(=O)NC1CCC1
REMARK SMILES IDX 11 1 12 2 13 3 14 4 15 5 16 7 17 8 18 9 19 10 20 11 25 12
REMARK SMILES IDX 21 13 23 14 22 15 24 16 26 17 27 18 28 19 29 21 40 22 41 23
REMARK SMILES IDX 42 24 43 26 44 27 46 28 45 29 30 30 31 31 39 32 32 33 34 34
REMARK SMILES IDX 38 35 33 36 35 37 37 38 36 40 10 41 9 42 7 44 8 45 6 46 5 48
REMARK SMILES IDX 4 49 2 50 1 51 3 52
REMARK H PARENT 15 6 28 20 42 25 33 39 9 43 6 47 3 53
REMARK Flexibility Score: inf
ROOT
ATOM      1  C   UNL     1      53.179  37.416 -32.066  1.00  0.00     0.021 C 
ENDROOT
BRANCH   1   2
ATOM      2  C   UNL     1      53.772  36.837 -31.506  1.00  0.00     0.004 C 
BRANCH   2   3
ATOM      3  C   UNL     1      53.389  36.323 -30.738  1.00  0.00     0.030 C 
BRANCH   3   4
ATOM      4  C   UNL     1      53.932  35.613 -30.291  1.00  0.00     0.159 C 
BRANCH   4   5
ATOM      5  N   UNL     1      53.696  34.649 -30.416  1.00  0.00    -0.199 NA
ATOM      6  H   UNL     1      54.133  34.240 -30.577  1.00  0.00     0.142 HD
BRANCH   5   7
ATOM      7  S   UNL     1      52.752  34.345 -30.282  1.00  0.00     0.241 S 
ATOM      8  O   UNL     1      52.843  34.496 -29.297  1.00  0.00    -0.207 OA
ATOM      9  O   UNL     1      52.661  34.193 -31.266  1.00  0.00    -0.207 OA
BRANCH   7  10
ATOM     10  C   UNL     1      51.810  34.040 -30.148  1.00  0.00     0.085 A 
ATOM     11  C   UNL     1      51.227  34.499 -29.476  1.00  0.00     0.022 A 
ATOM     12  C   UNL     1      51.448  33.278 -30.684  1.00  0.00     0.061 A 
ATOM     13  C   UNL     1      50.284  34.195 -29.340  1.00  0.00     0.004 A 
ATOM     14  C   UNL     1      50.505  32.974 -30.549  1.00  0.00     0.124 A 
ATOM     15  C   UNL     1      49.923  33.432 -29.877  1.00  0.00     0.039 A 
ATOM     16  F   UNL     1      50.144  32.211 -31.086  1.00  0.00    -0.207 F 
ENDBRANCH   7  10
ENDBRANCH   5   7
ENDBRANCH   4   5
BRANCH   4  17
ATOM     17  C   UNL     1      54.712  35.865 -29.719  1.00  0.00     0.238 C 
ATOM     18  O   UNL     1      55.572  35.362 -29.794  1.00  0.00    -0.273 OA
ATOM     19  N   UNL     1      54.631  36.622 -29.069  1.00  0.00    -0.343 N 
ATOM     20  H   UNL     1      54.097  36.935 -29.022  1.00  0.00     0.164 HD
BRANCH  19  21
ATOM     21  C   UNL     1      55.411  36.875 -28.497  1.00  0.00     0.175 C 
BRANCH  21  22
ATOM     22  C   UNL     1      56.054  37.574 -28.809  1.00  0.00     0.243 C 
ATOM     23  O   UNL     1      55.732  38.502 -28.995  1.00  0.00    -0.273 OA
ATOM     24  N   UNL     1      57.020  37.345 -28.936  1.00  0.00    -0.352 N 
ATOM     25  H   UNL     1      57.219  36.770 -28.821  1.00  0.00     0.163 HD
BRANCH  24  26
ATOM     26  C   UNL     1      57.663  38.045 -29.249  1.00  0.00     0.082 C 
ATOM     27  C   UNL     1      57.865  38.478 -30.127  1.00  0.00     0.025 C 
ATOM     28  C   UNL     1      58.369  38.601 -28.812  1.00  0.00     0.025 C 
ATOM     29  C   UNL     1      58.571  39.034 -29.690  1.00  0.00     0.004 C 
ENDBRANCH  24  26
ENDBRANCH  21  22
BRANCH  21  30
ATOM     30  C   UNL     1      55.548  36.428 -27.613  1.00  0.00     0.072 C 
BRANCH  30  31
ATOM     31  C   UNL     1      54.963  36.665 -26.837  1.00  0.00    -0.020 A 
ATOM     32  C   UNL     1      55.271  37.009 -25.957  1.00  0.00     0.003 A 
ATOM     33  C   UNL     1      53.971  36.598 -26.812  1.00  0.00     0.087 A 
ATOM     34  C   UNL     1      54.464  37.155 -25.385  1.00  0.00     0.046 A 
ATOM     35  C   UNL     1      56.182  37.210 -25.597  1.00  0.00     0.010 A 
ATOM     36  N   UNL     1      53.664  36.900 -25.916  1.00  0.00    -0.361 N 
ATOM     37  C   UNL     1      54.568  37.502 -24.453  1.00  0.00     0.026 A 
ATOM     38  C   UNL     1      56.286  37.557 -24.665  1.00  0.00     0.001 A 
ATOM     39  H   UNL     1      53.075  36.925 -25.723  1.00  0.00     0.166 HD
ATOM     40  C   UNL     1      55.479  37.703 -24.093  1.00  0.00     0.002 A 
ENDBRANCH  30  31
ENDBRANCH  21  30
ENDBRANCH  19  21
ENDBRANCH   4  17
ENDBRANCH   3   4
ENDBRANCH   2   3
ENDBRANCH   1   2
BRANCH   1  41
ATOM     41  C   UNL     1      53.326  38.404 -32.091  1.00  0.00     0.115 C 
BRANCH  41  42
ATOM     42  N   UNL     1      52.619  39.006 -32.465  1.00  0.00    -0.363 N 
ATOM     43  H   UNL     1      52.112  38.763 -32.725  1.00  0.00     0.162 HD
BRANCH  42  44
ATOM     44  C   UNL     1      52.731  39.998 -32.419  1.00  0.00     0.166 C 
ATOM     45  S   UNL     1      53.572  40.423 -32.754  1.00  0.00    -0.041 S 
BRANCH  44  46
ATOM     46  N   UNL     1      52.002  40.566 -32.037  1.00  0.00    -0.362 N 
ATOM     47  H   UNL     1      51.434  40.550 -32.285  1.00  0.00     0.162 HD
BRANCH  46  48
ATOM     48  C   UNL     1      52.189  41.161 -31.256  1.00  0.00     0.127 C 
BRANCH  48  49
ATOM     49  C   UNL     1      51.444  41.439 -30.649  1.00  0.00     0.143 C 
BRANCH  49  50
ATOM     50  C   UNL     1      51.626  42.056 -29.883  1.00  0.00     0.305 C 
ATOM     51  O   UNL     1      51.836  41.682 -28.979  1.00  0.00    -0.252 OA
BRANCH  50  52
ATOM     52  O   UNL     1      51.598  43.045 -30.020  1.00  0.00    -0.481 OA
ATOM     53  H   UNL     1      51.547  43.278 -30.593  1.00  0.00     0.296 HD
ENDBRANCH  50  52
ENDBRANCH  49  50
ENDBRANCH  48  49
ENDBRANCH  46  48
ENDBRANCH  44  46
ENDBRANCH  42  44
ENDBRANCH  41  42
ENDBRANCH   1  41
TORSDOF 20
ENDMDL
MODEL 5
REMARK VINA RESULT:    -7.097      9.100     13.853
REMARK INTER + INTRA:           5.024
REMARK INTER:                 -18.956
REMARK INTRA:                  23.980
REMARK UNBOUND:                20.211
REMARK SMILES O=C(O)CCNC(=S)NCCCC[C@H](NS(=O)(=O)c1cccc(F)c1)C(=O)N[C@@H](Cc1c[nH]c2ccccc12)C(=O)NC1CCC1
REMARK SMILES IDX 11 1 12 2 13 3 14 4 15 5 16 7 17 8 18 9 19 10 20 11 25 12
REMARK SMILES IDX 21 13 23 14 22 15 24 16 26 17 27 18 28 19 29 21 40 22 41 23
REMARK SMILES IDX 42 24 43 26 44 27 46 28 45 29 30 30 31 31 39 32 32 33 34 34
REMARK SMILES IDX 38 35 33 36 35 37 37 38 36 40 10 41 9 42 7 44 8 45 6 46 5 48
REMARK SMILES IDX 4 49 2 50 1 51 3 52
REMARK H PARENT 15 6 28 20 42 25 33 39 9 43 6 47 3 53
REMARK Flexibility Score: inf
ROOT
ATOM      1  C   UNL     1      58.773  35.532 -19.362  1.00  0.00     0.021 C 
ENDROOT
BRANCH   1   2
ATOM      2  C   UNL     1      59.255  35.739 -18.511  1.00  0.00     0.004 C 
BRANCH   2   3
ATOM      3  C   UNL     1      60.256  35.739 -18.490  1.00  0.00     0.030 C 
BRANCH   3   4
ATOM      4  C   UNL     1      60.737  35.562 -17.632  1.00  0.00     0.159 C 
BRANCH   4   5
ATOM      5  N   UNL     1      61.143  36.319 -17.120  1.00  0.00    -0.199 NA
ATOM      6  H   UNL     1      61.015  36.391 -16.518  1.00  0.00     0.142 HD
BRANCH   5   7
ATOM      7  S   UNL     1      61.756  36.962 -17.581  1.00  0.00     0.241 S 
ATOM      8  O   UNL     1      62.477  36.269 -17.589  1.00  0.00    -0.207 OA
ATOM      9  O   UNL     1      61.035  37.655 -17.572  1.00  0.00    -0.207 OA
BRANCH   7  10
ATOM     10  C   UNL     1      62.368  37.604 -18.040  1.00  0.00     0.085 A 
ATOM     11  C   UNL     1      62.519  38.515 -17.655  1.00  0.00     0.022 A 
ATOM     12  C   UNL     1      62.832  37.337 -18.885  1.00  0.00     0.061 A 
ATOM     13  C   UNL     1      63.132  39.158 -18.114  1.00  0.00     0.004 A 
ATOM     14  C   UNL     1      63.445  37.979 -19.345  1.00  0.00     0.124 A 
ATOM     15  C   UNL     1      63.595  38.890 -18.960  1.00  0.00     0.039 A 
ATOM     16  F   UNL     1      63.908  37.711 -20.190  1.00  0.00    -0.207 F 
ENDBRANCH   7  10
ENDBRANCH   5   7
ENDBRANCH   4   5
BRANCH   4  17
ATOM     17  C   UNL     1      60.815  34.627 -17.286  1.00  0.00     0.238 C 
ATOM     18  O   UNL     1      60.784  33.854 -17.919  1.00  0.00    -0.273 OA
ATOM     19  N   UNL     1      60.923  34.465 -16.305  1.00  0.00    -0.343 N 
ATOM     20  H   UNL     1      60.942  34.944 -15.911  1.00  0.00     0.164 HD
BRANCH  19  21
ATOM     21  C   UNL     1      61.000  33.530 -15.958  1.00  0.00     0.175 C 
BRANCH  21  22
ATOM     22  C   UNL     1      61.878  33.054 -15.999  1.00  0.00     0.243 C 
ATOM     23  O   UNL     1      62.731  33.564 -15.884  1.00  0.00    -0.273 OA
ATOM     24  N   UNL     1      61.905  32.066 -16.155  1.00  0.00    -0.352 N 
ATOM     25  H   UNL     1      61.377  31.750 -16.227  1.00  0.00     0.163 HD
BRANCH  24  26
ATOM     26  C   UNL     1      62.784  31.590 -16.196  1.00  0.00     0.082 C 
ATOM     27  C   UNL     1      63.516  31.513 -16.872  1.00  0.00     0.025 C 
ATOM     28  C   UNL     1      63.293  30.993 -15.577  1.00  0.00     0.025 C 
ATOM     29  C   UNL     1      64.026  30.916 -16.253  1.00  0.00     0.004 C 
ENDBRANCH  24  26
ENDBRANCH  21  22
BRANCH  21  30
ATOM     30  C   UNL     1      60.200  33.073 -15.571  1.00  0.00     0.072 C 
BRANCH  30  31
ATOM     31  C   UNL     1      59.783  33.420 -14.731  1.00  0.00    -0.020 A 
ATOM     32  C   UNL     1      59.466  32.870 -13.966  1.00  0.00     0.003 A 
ATOM     33  C   UNL     1      59.613  34.376 -14.515  1.00  0.00     0.087 A 
ATOM     34  C   UNL     1      59.098  33.491 -13.273  1.00  0.00     0.046 A 
ATOM     35  C   UNL     1      59.463  31.883 -13.805  1.00  0.00     0.010 A 
ATOM     36  N   UNL     1      59.191  34.418 -13.617  1.00  0.00    -0.361 N 
ATOM     37  C   UNL     1      58.727  33.124 -12.420  1.00  0.00     0.026 A 
ATOM     38  C   UNL     1      59.092  31.517 -12.952  1.00  0.00     0.001 A 
ATOM     39  H   UNL     1      59.016  34.935 -13.321  1.00  0.00     0.166 HD
ATOM     40  C   UNL     1      58.724  32.137 -12.260  1.00  0.00     0.002 A 
ENDBRANCH  30  31
ENDBRANCH  21  30
ENDBRANCH  19  21
ENDBRANCH   4  17
ENDBRANCH   3   4
ENDBRANCH   2   3
ENDBRANCH   1   2
BRANCH   1  41
ATOM     41  C   UNL     1      58.713  36.222 -20.083  1.00  0.00     0.115 C 
BRANCH  41  42
ATOM     42  N   UNL     1      57.876  36.307 -20.625  1.00  0.00    -0.363 N 
ATOM     43  H   UNL     1      57.343  36.076 -20.411  1.00  0.00     0.162 HD
BRANCH  42  44
ATOM     44  C   UNL     1      57.900  36.766 -21.513  1.00  0.00     0.166 C 
ATOM     45  S   UNL     1      58.628  36.555 -22.166  1.00  0.00    -0.041 S 
BRANCH  44  46
ATOM     46  N   UNL     1      57.197  37.437 -21.748  1.00  0.00    -0.362 N 
ATOM     47  H   UNL     1      57.350  37.951 -22.058  1.00  0.00     0.162 HD
BRANCH  46  48
ATOM     48  C   UNL     1      56.246  37.278 -21.484  1.00  0.00     0.127 C 
BRANCH  48  49
ATOM     49  C   UNL     1      55.527  37.894 -21.806  1.00  0.00     0.143 C 
BRANCH  49  50
ATOM     50  C   UNL     1      54.832  37.563 -22.445  1.00  0.00     0.305 C 
ATOM     51  O   UNL     1      54.631  38.080 -23.277  1.00  0.00    -0.252 OA
BRANCH  50  52
ATOM     52  O   UNL     1      54.340  36.715 -22.252  1.00  0.00    -0.481 OA
ATOM     53  H   UNL     1      54.370  36.241 -22.651  1.00  0.00     0.296 HD
ENDBRANCH  50  52
ENDBRANCH  49  50
ENDBRANCH  48  49
ENDBRANCH  46  48
ENDBRANCH  44  46
ENDBRANCH  42  44
ENDBRANCH  41  42
ENDBRANCH   1  41
TORSDOF 20
ENDMDL
MODEL 6
REMARK VINA RESULT:    -6.998      9.121     13.967
REMARK INTER + INTRA:           5.234
REMARK INTER:                 -19.459
REMARK INTRA:                  24.693
REMARK UNBOUND:                20.211
REMARK SMILES O=C(O)CCNC(=S)NCCCC[C@H](NS(=O)(=O)c1cccc(F)c1)C(=O)N[C@@H](Cc1c[nH]c2ccccc12)C(=O)NC1CCC1
REMARK SMILES IDX 11 1 12 2 13 3 14 4 15 5 16 7 17 8 18 9 19 10 20 11 25 12
REMARK SMILES IDX 21 13 23 14 22 15 24 16 26 17 27 18 28 19 29 21 40 22 41 23
REMARK SMILES IDX 42 24 43 26 44 27 46 28 45 29 30 30 31 31 39 32 32 33 34 34
REMARK SMILES IDX 38 35 33 36 35 37 37 38 36 40 10 41 9 42 7 44 8 45 6 46 5 48
REMARK SMILES IDX 4 49 2 50 1 51 3 52
REMARK H PARENT 15 6 28 20 42 25 33 39 9 43 6 47 3 53
REMARK Flexibility Score: inf
ROOT
ATOM      1  C   UNL     1      59.315  35.273 -19.498  1.00  0.00     0.021 C 
ENDROOT
BRANCH   1   2
ATOM      2  C   UNL     1      59.416  35.359 -18.506  1.00  0.00     0.004 C 
BRANCH   2   3
ATOM      3  C   UNL     1      60.309  35.578 -18.112  1.00  0.00     0.030 C 
BRANCH   3   4
ATOM      4  C   UNL     1      60.395  35.740 -17.129  1.00  0.00     0.159 C 
BRANCH   4   5
ATOM      5  N   UNL     1      60.908  36.531 -16.795  1.00  0.00    -0.199 NA
ATOM      6  H   UNL     1      60.817  36.739 -16.218  1.00  0.00     0.142 HD
BRANCH   5   7
ATOM      7  S   UNL     1      61.568  36.987 -17.393  1.00  0.00     0.241 S 
ATOM      8  O   UNL     1      62.241  36.273 -17.194  1.00  0.00    -0.207 OA
ATOM      9  O   UNL     1      60.896  37.700 -17.591  1.00  0.00    -0.207 OA
BRANCH   7  10
ATOM     10  C   UNL     1      62.228  37.442 -17.989  1.00  0.00     0.085 A 
ATOM     11  C   UNL     1      62.486  38.393 -17.816  1.00  0.00     0.022 A 
ATOM     12  C   UNL     1      62.632  36.948 -18.760  1.00  0.00     0.061 A 
ATOM     13  C   UNL     1      63.147  38.849 -18.413  1.00  0.00     0.004 A 
ATOM     14  C   UNL     1      63.292  37.404 -19.356  1.00  0.00     0.124 A 
ATOM     15  C   UNL     1      63.550  38.355 -19.183  1.00  0.00     0.039 A 
ATOM     16  F   UNL     1      63.695  36.909 -20.127  1.00  0.00    -0.207 F 
ENDBRANCH   7  10
ENDBRANCH   5   7
ENDBRANCH   4   5
BRANCH   4  17
ATOM     17  C   UNL     1      59.969  35.111 -16.480  1.00  0.00     0.238 C 
ATOM     18  O   UNL     1      58.975  35.006 -16.462  1.00  0.00    -0.273 OA
ATOM     19  N   UNL     1      60.538  34.585 -15.846  1.00  0.00    -0.343 N 
ATOM     20  H   UNL     1      61.155  34.650 -15.856  1.00  0.00     0.164 HD
BRANCH  19  21
ATOM     21  C   UNL     1      60.111  33.956 -15.196  1.00  0.00     0.175 C 
BRANCH  21  22
ATOM     22  C   UNL     1      59.778  34.297 -14.317  1.00  0.00     0.243 C 
ATOM     23  O   UNL     1      60.271  35.026 -13.843  1.00  0.00    -0.273 OA
ATOM     24  N   UNL     1      58.949  33.909 -13.912  1.00  0.00    -0.352 N 
ATOM     25  H   UNL     1      58.644  33.457 -14.206  1.00  0.00     0.163 HD
BRANCH  24  26
ATOM     26  C   UNL     1      58.616  34.250 -13.032  1.00  0.00     0.082 C 
ATOM     27  C   UNL     1      58.604  33.899 -12.097  1.00  0.00     0.025 C 
ATOM     28  C   UNL     1      58.156  35.083 -12.726  1.00  0.00     0.025 C 
ATOM     29  C   UNL     1      58.144  34.732 -11.790  1.00  0.00     0.004 C 
ENDBRANCH  24  26
ENDBRANCH  21  22
BRANCH  21  30
ATOM     30  C   UNL     1      60.019  32.988 -15.425  1.00  0.00     0.072 C 
BRANCH  30  31
ATOM     31  C   UNL     1      60.827  32.398 -15.441  1.00  0.00    -0.020 A 
ATOM     32  C   UNL     1      60.984  31.606 -14.862  1.00  0.00     0.003 A 
ATOM     33  C   UNL     1      61.614  32.503 -16.040  1.00  0.00     0.087 A 
ATOM     34  C   UNL     1      61.873  31.219 -15.105  1.00  0.00     0.046 A 
ATOM     35  C   UNL     1      60.434  31.182 -14.142  1.00  0.00     0.010 A 
ATOM     36  N   UNL     1      62.259  31.776 -15.832  1.00  0.00    -0.361 N 
ATOM     37  C   UNL     1      62.213  30.408 -14.628  1.00  0.00     0.026 A 
ATOM     38  C   UNL     1      60.774  30.371 -13.666  1.00  0.00     0.001 A 
ATOM     39  H   UNL     1      62.807  31.685 -16.109  1.00  0.00     0.166 HD
ATOM     40  C   UNL     1      61.663  29.984 -13.909  1.00  0.00     0.002 A 
ENDBRANCH  30  31
ENDBRANCH  21  30
ENDBRANCH  19  21
ENDBRANCH   4  17
ENDBRANCH   3   4
ENDBRANCH   2   3
ENDBRANCH   1   2
BRANCH   1  41
ATOM     41  C   UNL     1      58.485  35.602 -19.946  1.00  0.00     0.115 C 
BRANCH  41  42
ATOM     42  N   UNL     1      58.537  36.351 -20.608  1.00  0.00    -0.363 N 
ATOM     43  H   UNL     1      58.959  36.800 -20.536  1.00  0.00     0.162 HD
BRANCH  42  44
ATOM     44  C   UNL     1      57.910  36.376 -21.386  1.00  0.00     0.166 C 
ATOM     45  S   UNL     1      58.169  35.946 -22.251  1.00  0.00    -0.041 S 
BRANCH  44  46
ATOM     46  N   UNL     1      57.024  36.831 -21.299  1.00  0.00    -0.362 N 
ATOM     47  H   UNL     1      56.623  36.648 -20.863  1.00  0.00     0.162 HD
BRANCH  46  48
ATOM     48  C   UNL     1      56.784  37.581 -21.915  1.00  0.00     0.127 C 
BRANCH  48  49
ATOM     49  C   UNL     1      55.836  37.897 -21.974  1.00  0.00     0.143 C 
BRANCH  49  50
ATOM     50  C   UNL     1      55.590  38.623 -22.615  1.00  0.00     0.305 C 
ATOM     51  O   UNL     1      55.997  39.532 -22.521  1.00  0.00    -0.252 OA
BRANCH  50  52
ATOM     52  O   UNL     1      54.938  38.441 -23.351  1.00  0.00    -0.481 OA
ATOM     53  H   UNL     1      55.141  38.348 -23.929  1.00  0.00     0.296 HD
ENDBRANCH  50  52
ENDBRANCH  49  50
ENDBRANCH  48  49
ENDBRANCH  46  48
ENDBRANCH  44  46
ENDBRANCH  42  44
ENDBRANCH  41  42
ENDBRANCH   1  41
TORSDOF 20
ENDMDL
MODEL 7
REMARK VINA RESULT:    -6.821     12.468     15.916
REMARK INTER + INTRA:           5.615
REMARK INTER:                 -15.536
REMARK INTRA:                  21.151
REMARK UNBOUND:                20.211
REMARK SMILES O=C(O)CCNC(=S)NCCCC[C@H](NS(=O)(=O)c1cccc(F)c1)C(=O)N[C@@H](Cc1c[nH]c2ccccc12)C(=O)NC1CCC1
REMARK SMILES IDX 11 1 12 2 13 3 14 4 15 5 16 7 17 8 18 9 19 10 20 11 25 12
REMARK SMILES IDX 21 13 23 14 22 15 24 16 26 17 27 18 28 19 29 21 40 22 41 23
REMARK SMILES IDX 42 24 43 26 44 27 46 28 45 29 30 30 31 31 39 32 32 33 34 34
REMARK SMILES IDX 38 35 33 36 35 37 37 38 36 40 10 41 9 42 7 44 8 45 6 46 5 48
REMARK SMILES IDX 4 49 2 50 1 51 3 52
REMARK H PARENT 15 6 28 20 42 25 33 39 9 43 6 47 3 53
REMARK Flexibility Score: inf
ROOT
ATOM      1  C   UNL     1      62.632  31.135 -17.780  1.00  0.00     0.021 C 
ENDROOT
BRANCH   1   2
ATOM      2  C   UNL     1      62.358  31.677 -16.985  1.00  0.00     0.004 C 
BRANCH   2   3
ATOM      3  C   UNL     1      61.701  32.425 -17.092  1.00  0.00     0.030 C 
BRANCH   3   4
ATOM      4  C   UNL     1      61.346  32.897 -16.286  1.00  0.00     0.159 C 
BRANCH   4   5
ATOM      5  N   UNL     1      61.650  33.827 -16.076  1.00  0.00    -0.199 NA
ATOM      6  H   UNL     1      62.079  33.923 -15.639  1.00  0.00     0.142 HD
BRANCH   5   7
ATOM      7  S   UNL     1      61.262  34.603 -16.574  1.00  0.00     0.241 S 
ATOM      8  O   UNL     1      60.793  34.902 -15.742  1.00  0.00    -0.207 OA
ATOM      9  O   UNL     1      61.730  34.305 -17.405  1.00  0.00    -0.207 OA
BRANCH   7  10
ATOM     10  C   UNL     1      60.874  35.379 -17.070  1.00  0.00     0.085 A 
ATOM     11  C   UNL     1      59.928  35.344 -17.393  1.00  0.00     0.022 A 
ATOM     12  C   UNL     1      61.430  36.192 -17.244  1.00  0.00     0.061 A 
ATOM     13  C   UNL     1      59.539  36.119 -17.890  1.00  0.00     0.004 A 
ATOM     14  C   UNL     1      61.042  36.967 -17.740  1.00  0.00     0.124 A 
ATOM     15  C   UNL     1      60.096  36.932 -18.064  1.00  0.00     0.039 A 
ATOM     16  F   UNL     1      61.599  37.780 -17.914  1.00  0.00    -0.207 F 
ENDBRANCH   7  10
ENDBRANCH   5   7
ENDBRANCH   4   5
BRANCH   4  17
ATOM     17  C   UNL     1      60.688  32.441 -15.688  1.00  0.00     0.238 C 
ATOM     18  O   UNL     1      59.820  32.112 -16.059  1.00  0.00    -0.273 OA
ATOM     19  N   UNL     1      60.897  32.313 -14.718  1.00  0.00    -0.343 N 
ATOM     20  H   UNL     1      61.436  32.518 -14.488  1.00  0.00     0.164 HD
BRANCH  19  21
ATOM     21  C   UNL     1      60.238  31.857 -14.120  1.00  0.00     0.175 C 
BRANCH  21  22
ATOM     22  C   UNL     1      59.561  32.396 -13.620  1.00  0.00     0.243 C 
ATOM     23  O   UNL     1      58.740  31.956 -13.257  1.00  0.00    -0.273 OA
ATOM     24  N   UNL     1      59.704  33.377 -13.482  1.00  0.00    -0.352 N 
ATOM     25  H   UNL     1      60.213  33.650 -13.707  1.00  0.00     0.163 HD
BRANCH  24  26
ATOM     26  C   UNL     1      59.026  33.916 -12.981  1.00  0.00     0.082 C 
ATOM     27  C   UNL     1      58.319  34.575 -13.235  1.00  0.00     0.025 C 
ATOM     28  C   UNL     1      58.776  34.018 -12.019  1.00  0.00     0.025 C 
ATOM     29  C   UNL     1      58.069  34.677 -12.273  1.00  0.00     0.004 C 
ENDBRANCH  24  26
ENDBRANCH  21  22
BRANCH  21  30
ATOM     30  C   UNL     1      60.257  30.862 -14.023  1.00  0.00     0.072 C 
BRANCH  30  31
ATOM     31  C   UNL     1      61.110  30.399 -13.784  1.00  0.00    -0.020 A 
ATOM     32  C   UNL     1      61.394  29.499 -14.098  1.00  0.00     0.003 A 
ATOM     33  C   UNL     1      61.823  30.758 -13.190  1.00  0.00     0.087 A 
ATOM     34  C   UNL     1      62.288  29.302 -13.696  1.00  0.00     0.046 A 
ATOM     35  C   UNL     1      60.958  28.830 -14.699  1.00  0.00     0.010 A 
ATOM     36  N   UNL     1      62.549  30.081 -13.136  1.00  0.00    -0.361 N 
ATOM     37  C   UNL     1      62.745  28.435 -13.894  1.00  0.00     0.026 A 
ATOM     38  C   UNL     1      61.415  27.963 -14.898  1.00  0.00     0.001 A 
ATOM     39  H   UNL     1      63.074  30.135 -12.810  1.00  0.00     0.166 HD
ATOM     40  C   UNL     1      62.309  27.766 -14.495  1.00  0.00     0.002 A 
ENDBRANCH  30  31
ENDBRANCH  21  30
ENDBRANCH  19  21
ENDBRANCH   4  17
ENDBRANCH   3   4
ENDBRANCH   2   3
ENDBRANCH   1   2
BRANCH   1  41
ATOM     41  C   UNL     1      62.493  30.146 -17.782  1.00  0.00     0.115 C 
BRANCH  41  42
ATOM     42  N   UNL     1      62.138  29.693 -18.600  1.00  0.00    -0.363 N 
ATOM     43  H   UNL     1      62.084  30.008 -19.131  1.00  0.00     0.162 HD
BRANCH  42  44
ATOM     44  C   UNL     1      61.871  28.730 -18.563  1.00  0.00     0.166 C 
ATOM     45  S   UNL     1      62.563  28.015 -18.665  1.00  0.00    -0.041 S 
BRANCH  44  46
ATOM     46  N   UNL     1      60.913  28.482 -18.423  1.00  0.00    -0.362 N 
ATOM     47  H   UNL     1      60.489  28.923 -18.327  1.00  0.00     0.162 HD
BRANCH  46  48
ATOM     48  C   UNL     1      60.638  27.521 -18.440  1.00  0.00     0.127 C 
BRANCH  48  49
ATOM     49  C   UNL     1      59.695  27.266 -18.221  1.00  0.00     0.143 C 
BRANCH  49  50
ATOM     50  C   UNL     1      59.481  26.329 -17.946  1.00  0.00     0.305 C 
ATOM     51  O   UNL     1      60.117  25.821 -17.365  1.00  0.00    -0.252 OA
BRANCH  50  52
ATOM     52  O   UNL     1      58.631  25.900 -18.251  1.00  0.00    -0.481 OA
ATOM     53  H   UNL     1      58.440  25.973 -18.837  1.00  0.00     0.296 HD
ENDBRANCH  50  52
ENDBRANCH  49  50
ENDBRANCH  48  49
ENDBRANCH  46  48
ENDBRANCH  44  46
ENDBRANCH  42  44
ENDBRANCH  41  42
ENDBRANCH   1  41
TORSDOF 20
ENDMDL
MODEL 8
REMARK VINA RESULT:    -6.819      9.325     13.736
REMARK INTER + INTRA:           5.619
REMARK INTER:                 -17.875
REMARK INTRA:                  23.494
REMARK UNBOUND:                20.211
REMARK SMILES O=C(O)CCNC(=S)NCCCC[C@H](NS(=O)(=O)c1cccc(F)c1)C(=O)N[C@@H](Cc1c[nH]c2ccccc12)C(=O)NC1CCC1
REMARK SMILES IDX 11 1 12 2 13 3 14 4 15 5 16 7 17 8 18 9 19 10 20 11 25 12
REMARK SMILES IDX 21 13 23 14 22 15 24 16 26 17 27 18 28 19 29 21 40 22 41 23
REMARK SMILES IDX 42 24 43 26 44 27 46 28 45 29 30 30 31 31 39 32 32 33 34 34
REMARK SMILES IDX 38 35 33 36 35 37 37 38 36 40 10 41 9 42 7 44 8 45 6 46 5 48
REMARK SMILES IDX 4 49 2 50 1 51 3 52
REMARK H PARENT 15 6 28 20 42 25 33 39 9 43 6 47 3 53
REMARK Flexibility Score: inf
ROOT
ATOM      1  C   UNL     1      59.014  35.175 -19.041  1.00  0.00     0.021 C 
ENDROOT
BRANCH   1   2
ATOM      2  C   UNL     1      59.460  35.430 -18.182  1.00  0.00     0.004 C 
BRANCH   2   3
ATOM      3  C   UNL     1      60.456  35.387 -18.105  1.00  0.00     0.030 C 
BRANCH   3   4
ATOM      4  C   UNL     1      60.898  35.586 -17.230  1.00  0.00     0.159 C 
BRANCH   4   5
ATOM      5  N   UNL     1      61.104  36.531 -16.977  1.00  0.00    -0.199 NA
ATOM      6  H   UNL     1      60.836  36.785 -16.479  1.00  0.00     0.142 HD
BRANCH   5   7
ATOM      7  S   UNL     1      61.743  37.068 -17.528  1.00  0.00     0.241 S 
ATOM      8  O   UNL     1      61.040  37.767 -17.663  1.00  0.00    -0.207 OA
ATOM      9  O   UNL     1      62.446  36.370 -17.394  1.00  0.00    -0.207 OA
BRANCH   7  10
ATOM     10  C   UNL     1      62.381  37.606 -18.079  1.00  0.00     0.085 A 
ATOM     11  C   UNL     1      62.768  37.219 -18.916  1.00  0.00     0.022 A 
ATOM     12  C   UNL     1      62.634  38.530 -17.793  1.00  0.00     0.061 A 
ATOM     13  C   UNL     1      63.406  37.756 -19.468  1.00  0.00     0.004 A 
ATOM     14  C   UNL     1      63.272  39.067 -18.344  1.00  0.00     0.124 A 
ATOM     15  C   UNL     1      63.659  38.681 -19.182  1.00  0.00     0.039 A 
ATOM     16  F   UNL     1      63.524  39.992 -18.058  1.00  0.00    -0.207 F 
ENDBRANCH   7  10
ENDBRANCH   5   7
ENDBRANCH   4   5
BRANCH   4  17
ATOM     17  C   UNL     1      61.135  34.840 -16.609  1.00  0.00     0.238 C 
ATOM     18  O   UNL     1      61.402  35.039 -15.666  1.00  0.00    -0.273 OA
ATOM     19  N   UNL     1      61.106  33.893 -16.930  1.00  0.00    -0.343 N 
ATOM     20  H   UNL     1      60.940  33.769 -17.515  1.00  0.00     0.164 HD
BRANCH  19  21
ATOM     21  C   UNL     1      61.343  33.146 -16.309  1.00  0.00     0.175 C 
BRANCH  21  22
ATOM     22  C   UNL     1      60.644  32.754 -15.710  1.00  0.00     0.243 C 
ATOM     23  O   UNL     1      59.788  32.412 -16.098  1.00  0.00    -0.273 OA
ATOM     24  N   UNL     1      60.801  32.703 -14.724  1.00  0.00    -0.352 N 
ATOM     25  H   UNL     1      61.331  32.915 -14.483  1.00  0.00     0.163 HD
BRANCH  24  26
ATOM     26  C   UNL     1      60.101  32.310 -14.126  1.00  0.00     0.082 C 
ATOM     27  C   UNL     1      59.936  31.408 -13.730  1.00  0.00     0.025 C 
ATOM     28  C   UNL     1      59.279  32.658 -13.677  1.00  0.00     0.025 C 
ATOM     29  C   UNL     1      59.113  31.756 -13.281  1.00  0.00     0.004 C 
ENDBRANCH  24  26
ENDBRANCH  21  22
BRANCH  21  30
ATOM     30  C   UNL     1      62.277  32.793 -16.285  1.00  0.00     0.072 C 
BRANCH  30  31
ATOM     31  C   UNL     1      62.592  32.162 -16.995  1.00  0.00    -0.020 A 
ATOM     32  C   UNL     1      63.093  31.317 -16.844  1.00  0.00     0.003 A 
ATOM     33  C   UNL     1      62.457  32.270 -17.974  1.00  0.00     0.087 A 
ATOM     34  C   UNL     1      63.268  30.901 -17.736  1.00  0.00     0.046 A 
ATOM     35  C   UNL     1      63.415  30.867 -16.011  1.00  0.00     0.010 A 
ATOM     36  N   UNL     1      62.874  31.493 -18.430  1.00  0.00    -0.361 N 
ATOM     37  C   UNL     1      63.766  30.036 -17.796  1.00  0.00     0.026 A 
ATOM     38  C   UNL     1      63.912  30.002 -16.070  1.00  0.00     0.001 A 
ATOM     39  H   UNL     1      62.886  31.394 -19.043  1.00  0.00     0.166 HD
ATOM     40  C   UNL     1      64.088  29.586 -16.963  1.00  0.00     0.002 A 
ENDBRANCH  30  31
ENDBRANCH  21  30
ENDBRANCH  19  21
ENDBRANCH   4  17
ENDBRANCH   3   4
ENDBRANCH   2   3
ENDBRANCH   1   2
BRANCH   1  41
ATOM     41  C   UNL     1      58.624  35.882 -19.630  1.00  0.00     0.115 C 
BRANCH  41  42
ATOM     42  N   UNL     1      58.149  35.625 -20.472  1.00  0.00    -0.363 N 
ATOM     43  H   UNL     1      58.018  35.029 -20.585  1.00  0.00     0.162 HD
BRANCH  42  44
ATOM     44  C   UNL     1      57.885  36.328 -21.132  1.00  0.00     0.166 C 
ATOM     45  S   UNL     1      58.440  36.480 -21.950  1.00  0.00    -0.041 S 
BRANCH  44  46
ATOM     46  N   UNL     1      57.066  36.879 -20.975  1.00  0.00    -0.362 N 
ATOM     47  H   UNL     1      56.858  36.968 -20.398  1.00  0.00     0.162 HD
BRANCH  46  48
ATOM     48  C   UNL     1      56.580  37.286 -21.749  1.00  0.00     0.127 C 
BRANCH  48  49
ATOM     49  C   UNL     1      55.666  37.670 -21.620  1.00  0.00     0.143 C 
BRANCH  49  50
ATOM     50  C   UNL     1      54.964  37.538 -22.320  1.00  0.00     0.305 C 
ATOM     51  O   UNL     1      54.894  38.180 -23.085  1.00  0.00    -0.252 OA
BRANCH  50  52
ATOM     52  O   UNL     1      54.334  36.765 -22.257  1.00  0.00    -0.481 OA
ATOM     53  H   UNL     1      54.178  36.450 -22.768  1.00  0.00     0.296 HD
ENDBRANCH  50  52
ENDBRANCH  49  50
ENDBRANCH  48  49
ENDBRANCH  46  48
ENDBRANCH  44  46
ENDBRANCH  42  44
ENDBRANCH  41  42
ENDBRANCH   1  41
TORSDOF 20
ENDMDL
MODEL 9
REMARK VINA RESULT:    -6.683     11.807     15.030
REMARK INTER + INTRA:           5.908
REMARK INTER:                 -15.200
REMARK INTRA:                  21.109
REMARK UNBOUND:                20.211
REMARK SMILES O=C(O)CCNC(=S)NCCCC[C@H](NS(=O)(=O)c1cccc(F)c1)C(=O)N[C@@H](Cc1c[nH]c2ccccc12)C(=O)NC1CCC1
REMARK SMILES IDX 11 1 12 2 13 3 14 4 15 5 16 7 17 8 18 9 19 10 20 11 25 12
REMARK SMILES IDX 21 13 23 14 22 15 24 16 26 17 27 18 28 19 29 21 40 22 41 23
REMARK SMILES IDX 42 24 43 26 44 27 46 28 45 29 30 30 31 31 39 32 32 33 34 34
REMARK SMILES IDX 38 35 33 36 35 37 37 38 36 40 10 41 9 42 7 44 8 45 6 46 5 48
REMARK SMILES IDX 4 49 2 50 1 51 3 52
REMARK H PARENT 15 6 28 20 42 25 33 39 9 43 6 47 3 53
REMARK Flexibility Score: inf
ROOT
ATOM      1  C   UNL     1      61.467  33.617 -18.086  1.00  0.00     0.021 C 
ENDROOT
BRANCH   1   2
ATOM      2  C   UNL     1      61.845  33.089 -17.325  1.00  0.00     0.004 C 
BRANCH   2   3
ATOM      3  C   UNL     1      61.332  32.315 -16.951  1.00  0.00     0.030 C 
BRANCH   3   4
ATOM      4  C   UNL     1      61.774  31.683 -16.315  1.00  0.00     0.159 C 
BRANCH   4   5
ATOM      5  N   UNL     1      61.896  31.942 -15.357  1.00  0.00    -0.199 NA
ATOM      6  H   UNL     1      62.414  32.232 -15.177  1.00  0.00     0.142 HD
BRANCH   5   7
ATOM      7  S   UNL     1      61.182  31.732 -14.688  1.00  0.00     0.241 S 
ATOM      8  O   UNL     1      61.859  31.276 -14.109  1.00  0.00    -0.207 OA
ATOM      9  O   UNL     1      60.507  32.188 -15.267  1.00  0.00    -0.207 OA
BRANCH   7  10
ATOM     10  C   UNL     1      60.469  31.523 -14.020  1.00  0.00     0.085 A 
ATOM     11  C   UNL     1      59.703  32.153 -13.891  1.00  0.00     0.022 A 
ATOM     12  C   UNL     1      60.521  30.684 -13.479  1.00  0.00     0.061 A 
ATOM     13  C   UNL     1      58.990  31.945 -13.223  1.00  0.00     0.004 A 
ATOM     14  C   UNL     1      59.808  30.474 -12.810  1.00  0.00     0.124 A 
ATOM     15  C   UNL     1      59.042  31.105 -12.682  1.00  0.00     0.039 A 
ATOM     16  F   UNL     1      59.860  29.634 -12.269  1.00  0.00    -0.207 F 
ENDBRANCH   7  10
ENDBRANCH   5   7
ENDBRANCH   4   5
BRANCH   4  17
ATOM     17  C   UNL     1      62.095  30.792 -16.637  1.00  0.00     0.238 C 
ATOM     18  O   UNL     1      63.074  30.620 -16.739  1.00  0.00    -0.273 OA
ATOM     19  N   UNL     1      61.436  30.072 -16.856  1.00  0.00    -0.343 N 
ATOM     20  H   UNL     1      60.828  30.179 -16.792  1.00  0.00     0.164 HD
BRANCH  19  21
ATOM     21  C   UNL     1      61.756  29.182 -17.177  1.00  0.00     0.175 C 
BRANCH  21  22
ATOM     22  C   UNL     1      61.747  28.970 -18.154  1.00  0.00     0.243 C 
ATOM     23  O   UNL     1      60.940  29.185 -18.705  1.00  0.00    -0.273 OA
ATOM     24  N   UNL     1      62.544  28.544 -18.582  1.00  0.00    -0.352 N 
ATOM     25  H   UNL     1      63.044  28.411 -18.241  1.00  0.00     0.163 HD
BRANCH  24  26
ATOM     26  C   UNL     1      62.533  28.332 -19.560  1.00  0.00     0.082 C 
ATOM     27  C   UNL     1      62.126  27.615 -20.124  1.00  0.00     0.025 C 
ATOM     28  C   UNL     1      62.926  28.752 -20.378  1.00  0.00     0.025 C 
ATOM     29  C   UNL     1      62.519  28.034 -20.942  1.00  0.00     0.004 C 
ENDBRANCH  24  26
ENDBRANCH  21  22
BRANCH  21  30
ATOM     30  C   UNL     1      62.087  28.503 -16.522  1.00  0.00     0.072 C 
BRANCH  30  31
ATOM     31  C   UNL     1      61.434  27.962 -15.990  1.00  0.00    -0.020 A 
ATOM     32  C   UNL     1      61.558  27.654 -15.053  1.00  0.00     0.003 A 
ATOM     33  C   UNL     1      60.548  27.640 -16.307  1.00  0.00     0.087 A 
ATOM     34  C   UNL     1      60.743  27.137 -14.790  1.00  0.00     0.046 A 
ATOM     35  C   UNL     1      62.306  27.774 -14.401  1.00  0.00     0.010 A 
ATOM     36  N   UNL     1      60.123  27.131 -15.567  1.00  0.00    -0.361 N 
ATOM     37  C   UNL     1      60.676  26.741 -13.874  1.00  0.00     0.026 A 
ATOM     38  C   UNL     1      62.239  27.377 -13.485  1.00  0.00     0.001 A 
ATOM     39  H   UNL     1      59.566  26.857 -15.586  1.00  0.00     0.166 HD
ATOM     40  C   UNL     1      61.424  26.861 -13.222  1.00  0.00     0.002 A 
ENDBRANCH  30  31
ENDBRANCH  21  30
ENDBRANCH  19  21
ENDBRANCH   4  17
ENDBRANCH   3   4
ENDBRANCH   2   3
ENDBRANCH   1   2
BRANCH   1  41
ATOM     41  C   UNL     1      60.842  34.375 -17.906  1.00  0.00     0.115 C 
BRANCH  41  42
ATOM     42  N   UNL     1      60.404  34.855 -18.667  1.00  0.00    -0.363 N 
ATOM     43  H   UNL     1      60.546  34.703 -19.252  1.00  0.00     0.162 HD
BRANCH  42  44
ATOM     44  C   UNL     1      59.739  35.578 -18.487  1.00  0.00     0.166 C 
ATOM     45  S   UNL     1      59.958  36.309 -17.840  1.00  0.00    -0.041 S 
BRANCH  44  46
ATOM     46  N   UNL     1      58.854  35.572 -18.953  1.00  0.00    -0.362 N 
ATOM     47  H   UNL     1      58.376  35.265 -18.706  1.00  0.00     0.162 HD
BRANCH  46  48
ATOM     48  C   UNL     1      58.741  36.061 -19.818  1.00  0.00     0.127 C 
BRANCH  48  49
ATOM     49  C   UNL     1      57.898  35.954 -20.346  1.00  0.00     0.143 C 
BRANCH  49  50
ATOM     50  C   UNL     1      57.423  36.761 -20.699  1.00  0.00     0.305 C 
ATOM     51  O   UNL     1      57.942  37.493 -21.140  1.00  0.00    -0.252 OA
BRANCH  50  52
ATOM     52  O   UNL     1      56.430  36.835 -20.610  1.00  0.00    -0.481 OA
ATOM     53  H   UNL     1      56.091  37.034 -21.089  1.00  0.00     0.296 HD
ENDBRANCH  50  52
ENDBRANCH  49  50
ENDBRANCH  48  49
ENDBRANCH  46  48
ENDBRANCH  44  46
ENDBRANCH  42  44
ENDBRANCH  41  42
ENDBRANCH   1  41
TORSDOF 20
ENDMDL
