REMARK SMILES O=C(O)CC(=S)NCCCC[C@@H](NC(=O)OCc1ccccc1)C(=O)Nc1ccccc1
REMARK SMILES IDX 9 1 8 2 7 3 5 5 6 6 4 7 2 8 1 9 3 10 10 12 11 13 12 14 13 15
REMARK SMILES IDX 14 16 15 18 16 19 17 20 18 21 19 22 23 23 20 24 22 25 21 26
REMARK SMILES IDX 24 27 25 28 26 29 27 31 28 32 32 33 29 34 31 35 30 36
REMARK H PARENT 7 4 3 11 13 17 26 30
REMARK Flexibility Score: inf
ROOT
ATOM      1  C   UNL     1       9.201   2.253  -1.190  1.00  0.00     0.021 C 
ENDROOT
BRANCH   1   2
ATOM      2  C   UNL     1      10.588   2.124  -0.583  1.00  0.00     0.113 C 
BRANCH   2   3
ATOM      3  N   UNL     1      10.669   2.395   0.830  1.00  0.00    -0.379 N 
ATOM      4  H   UNL     1      11.131   3.263   1.084  1.00  0.00     0.161 HD
BRANCH   3   5
ATOM      5  C   UNL     1      10.783   1.421   1.787  1.00  0.00     0.087 C 
ATOM      6  S   UNL     1      11.597   1.802   3.197  1.00  0.00    -0.065 S 
BRANCH   5   7
ATOM      7  C   UNL     1      10.315   0.029   1.434  1.00  0.00     0.188 C 
BRANCH   7   8
ATOM      8  C   UNL     1       9.460  -0.683   2.438  1.00  0.00     0.310 C 
ATOM      9  O   UNL     1       8.837  -0.177   3.359  1.00  0.00    -0.252 OA
BRANCH   8  10
ATOM     10  O   UNL     1       9.351  -2.002   2.142  1.00  0.00    -0.481 OA
ATOM     11  H   UNL     1       9.929  -2.284   1.403  1.00  0.00     0.296 HD
ENDBRANCH   8  10
ENDBRANCH   7   8
ENDBRANCH   5   7
ENDBRANCH   3   5
ENDBRANCH   2   3
ENDBRANCH   1   2
BRANCH   1  12
ATOM     12  C   UNL     1       9.095   1.617  -2.584  1.00  0.00     0.004 C 
BRANCH  12  13
ATOM     13  C   UNL     1       9.988   2.224  -3.672  1.00  0.00     0.035 C 
BRANCH  13  14
ATOM     14  C   UNL     1      11.516   2.001  -3.568  1.00  0.00     0.175 C 
BRANCH  14  15
ATOM     15  N   UNL     1      11.859   0.577  -3.455  1.00  0.00    -0.310 N 
ATOM     16  C   UNL     1      12.625   0.080  -2.428  1.00  0.00     0.408 C 
ATOM     17  H   UNL     1      11.313  -0.103  -3.967  1.00  0.00     0.167 HD
ATOM     18  O   UNL     1      13.324   0.762  -1.697  1.00  0.00    -0.225 OA
BRANCH  16  19
ATOM     19  O   UNL     1      12.448  -1.264  -2.312  1.00  0.00    -0.445 OA
BRANCH  19  20
ATOM     20  C   UNL     1      13.326  -1.947  -1.390  1.00  0.00     0.270 C 
BRANCH  20  21
ATOM     21  C   UNL     1      12.612  -2.676  -0.263  1.00  0.00    -0.011 A 
ATOM     22  C   UNL     1      11.623  -3.639  -0.512  1.00  0.00     0.007 A 
ATOM     23  C   UNL     1      13.027  -2.482   1.069  1.00  0.00     0.007 A 
ATOM     24  C   UNL     1      11.069  -4.387   0.537  1.00  0.00     0.000 A 
ATOM     25  C   UNL     1      12.460  -3.214   2.117  1.00  0.00     0.000 A 
ATOM     26  C   UNL     1      11.491  -4.178   1.850  1.00  0.00     0.000 A 
ENDBRANCH  20  21
ENDBRANCH  19  20
ENDBRANCH  16  19
ENDBRANCH  14  15
BRANCH  14  27
ATOM     27  C   UNL     1      12.206   2.851  -4.645  1.00  0.00     0.247 C 
ATOM     28  O   UNL     1      11.693   3.898  -5.045  1.00  0.00    -0.272 OA
ATOM     29  N   UNL     1      13.489   2.446  -4.968  1.00  0.00    -0.324 N 
ATOM     30  H   UNL     1      13.619   1.443  -4.991  1.00  0.00     0.170 HD
BRANCH  29  31
ATOM     31  C   UNL     1      14.230   3.238  -5.864  1.00  0.00     0.041 A 
ATOM     32  C   UNL     1      14.467   4.590  -5.584  1.00  0.00     0.026 A 
ATOM     33  C   UNL     1      14.634   2.687  -7.075  1.00  0.00     0.026 A 
ATOM     34  C   UNL     1      15.058   5.407  -6.544  1.00  0.00     0.002 A 
ATOM     35  C   UNL     1      15.185   3.518  -8.050  1.00  0.00     0.002 A 
ATOM     36  C   UNL     1      15.394   4.874  -7.787  1.00  0.00     0.000 A 
ENDBRANCH  29  31
ENDBRANCH  14  27
ENDBRANCH  13  14
ENDBRANCH  12  13
ENDBRANCH   1  12
TORSDOF 15
