MODEL 1
REMARK VINA RESULT:    -7.330      0.000      0.000
REMARK INTER + INTRA:         -15.180
REMARK INTER:                 -13.544
REMARK INTRA:                  -1.636
REMARK UNBOUND:                -1.636
REMARK SMILES O=C(O)CC(=S)NCCCC[C@@H](NC(=O)OCc1ccccc1)C(=O)Nc1ccccc1
REMARK SMILES IDX 9 1 8 2 7 3 5 5 6 6 4 7 2 8 1 9 3 10 10 12 11 13 12 14 13 15
REMARK SMILES IDX 14 16 15 18 16 19 17 20 18 21 19 22 23 23 20 24 22 25 21 26
REMARK SMILES IDX 24 27 25 28 26 29 27 31 28 32 32 33 29 34 31 35 30 36
REMARK H PARENT 7 4 3 11 13 17 26 30
REMARK Flexibility Score: inf
ROOT
ATOM      1  C   UNL     1      37.734  -5.265  34.935  1.00  0.00     0.021 C 
ENDROOT
BRANCH   1   2
ATOM      2  C   UNL     1      37.991  -6.428  35.879  1.00  0.00     0.113 C 
BRANCH   2   3
ATOM      3  N   UNL     1      38.618  -6.079  37.129  1.00  0.00    -0.379 N 
ATOM      4  H   UNL     1      39.590  -6.356  37.223  1.00  0.00     0.161 HD
BRANCH   3   5
ATOM      5  C   UNL     1      37.952  -6.022  38.325  1.00  0.00     0.087 C 
ATOM      6  S   UNL     1      37.202  -4.585  38.735  1.00  0.00    -0.065 S 
BRANCH   5   7
ATOM      7  C   UNL     1      38.084  -7.201  39.261  1.00  0.00     0.188 C 
BRANCH   7   8
ATOM      8  C   UNL     1      39.029  -7.059  40.415  1.00  0.00     0.310 C 
ATOM      9  O   UNL     1      38.948  -6.257  41.333  1.00  0.00    -0.252 OA
BRANCH   8  10
ATOM     10  O   UNL     1      39.973  -8.032  40.398  1.00  0.00    -0.481 OA
ATOM     11  H   UNL     1      40.881  -7.697  40.553  1.00  0.00     0.296 HD
ENDBRANCH   8  10
ENDBRANCH   7   8
ENDBRANCH   5   7
ENDBRANCH   3   5
ENDBRANCH   2   3
ENDBRANCH   1   2
BRANCH   1  12
ATOM     12  C   UNL     1      37.292  -5.716  33.535  1.00  0.00     0.004 C 
BRANCH  12  13
ATOM     13  C   UNL     1      37.683  -4.794  32.375  1.00  0.00     0.035 C 
BRANCH  13  14
ATOM     14  C   UNL     1      36.562  -3.992  31.672  1.00  0.00     0.175 C 
BRANCH  14  15
ATOM     15  N   UNL     1      35.436  -4.848  31.276  1.00  0.00    -0.310 N 
ATOM     16  C   UNL     1      35.455  -5.615  30.136  1.00  0.00     0.408 C 
ATOM     17  H   UNL     1      34.745  -5.105  31.969  1.00  0.00     0.167 HD
ATOM     18  O   UNL     1      36.236  -5.458  29.213  1.00  0.00    -0.225 OA
BRANCH  16  19
ATOM     19  O   UNL     1      34.521  -6.602  30.213  1.00  0.00    -0.445 OA
BRANCH  19  20
ATOM     20  C   UNL     1      34.161  -7.040  31.542  1.00  0.00     0.270 C 
BRANCH  20  21
ATOM     21  C   UNL     1      34.932  -8.254  32.035  1.00  0.00    -0.011 A 
ATOM     22  C   UNL     1      35.310  -8.397  33.378  1.00  0.00     0.007 A 
ATOM     23  C   UNL     1      35.174  -9.332  31.160  1.00  0.00     0.007 A 
ATOM     24  C   UNL     1      35.909  -9.581  33.833  1.00  0.00     0.000 A 
ATOM     25  C   UNL     1      35.788 -10.504  31.610  1.00  0.00     0.000 A 
ATOM     26  C   UNL     1      36.143 -10.636  32.951  1.00  0.00     0.000 A 
ENDBRANCH  20  21
ENDBRANCH  19  20
ENDBRANCH  16  19
ENDBRANCH  14  15
BRANCH  14  27
ATOM     27  C   UNL     1      36.282  -2.725  32.494  1.00  0.00     0.247 C 
ATOM     28  O   UNL     1      35.126  -2.393  32.765  1.00  0.00    -0.272 OA
ATOM     29  N   UNL     1      37.406  -2.128  33.038  1.00  0.00    -0.324 N 
ATOM     30  H   UNL     1      38.220  -2.141  32.437  1.00  0.00     0.170 HD
BRANCH  29  31
ATOM     31  C   UNL     1      37.224  -1.028  33.896  1.00  0.00     0.041 A 
ATOM     32  C   UNL     1      37.097  -1.222  35.278  1.00  0.00     0.026 A 
ATOM     33  C   UNL     1      37.071   0.239  33.344  1.00  0.00     0.026 A 
ATOM     34  C   UNL     1      36.757  -0.153  36.102  1.00  0.00     0.002 A 
ATOM     35  C   UNL     1      36.688   1.297  34.168  1.00  0.00     0.002 A 
ATOM     36  C   UNL     1      36.528   1.102  35.542  1.00  0.00     0.000 A 
ENDBRANCH  29  31
ENDBRANCH  14  27
ENDBRANCH  13  14
ENDBRANCH  12  13
ENDBRANCH   1  12
TORSDOF 15
ENDMDL
MODEL 2
REMARK VINA RESULT:    -7.219      2.910      6.082
REMARK INTER + INTRA:         -14.974
REMARK INTER:                 -12.514
REMARK INTRA:                  -2.460
REMARK UNBOUND:                -1.636
REMARK SMILES O=C(O)CC(=S)NCCCC[C@@H](NC(=O)OCc1ccccc1)C(=O)Nc1ccccc1
REMARK SMILES IDX 9 1 8 2 7 3 5 5 6 6 4 7 2 8 1 9 3 10 10 12 11 13 12 14 13 15
REMARK SMILES IDX 14 16 15 18 16 19 17 20 18 21 19 22 23 23 20 24 22 25 21 26
REMARK SMILES IDX 24 27 25 28 26 29 27 31 28 32 32 33 29 34 31 35 30 36
REMARK H PARENT 7 4 3 11 13 17 26 30
REMARK Flexibility Score: inf
ROOT
ATOM      1  C   UNL     1      37.814  -4.649  32.031  1.00  0.00     0.021 C 
ENDROOT
BRANCH   1   2
ATOM      2  C   UNL     1      37.241  -5.846  32.770  1.00  0.00     0.113 C 
BRANCH   2   3
ATOM      3  N   UNL     1      37.362  -7.108  32.085  1.00  0.00    -0.379 N 
ATOM      4  H   UNL     1      37.041  -7.117  31.122  1.00  0.00     0.161 HD
BRANCH   3   5
ATOM      5  C   UNL     1      37.248  -8.325  32.705  1.00  0.00     0.087 C 
ATOM      6  S   UNL     1      36.893  -8.340  34.339  1.00  0.00    -0.065 S 
BRANCH   5   7
ATOM      7  C   UNL     1      37.614  -9.556  31.911  1.00  0.00     0.188 C 
BRANCH   7   8
ATOM      8  C   UNL     1      36.515 -10.528  31.604  1.00  0.00     0.310 C 
ATOM      9  O   UNL     1      36.250 -11.551  32.216  1.00  0.00    -0.252 OA
BRANCH   8  10
ATOM     10  O   UNL     1      35.732 -10.078  30.592  1.00  0.00    -0.481 OA
ATOM     11  H   UNL     1      34.884  -9.696  30.897  1.00  0.00     0.296 HD
ENDBRANCH   8  10
ENDBRANCH   7   8
ENDBRANCH   5   7
ENDBRANCH   3   5
ENDBRANCH   2   3
ENDBRANCH   1   2
BRANCH   1  12
ATOM     12  C   UNL     1      37.267  -3.309  32.544  1.00  0.00     0.004 C 
BRANCH  12  13
ATOM     13  C   UNL     1      37.560  -2.978  34.012  1.00  0.00     0.035 C 
BRANCH  13  14
ATOM     14  C   UNL     1      36.369  -2.928  34.999  1.00  0.00     0.175 C 
BRANCH  14  15
ATOM     15  N   UNL     1      35.102  -3.299  34.354  1.00  0.00    -0.310 N 
ATOM     16  C   UNL     1      34.207  -2.364  33.890  1.00  0.00     0.408 C 
ATOM     17  H   UNL     1      34.991  -4.235  33.988  1.00  0.00     0.167 HD
ATOM     18  O   UNL     1      34.213  -1.187  34.209  1.00  0.00    -0.225 OA
BRANCH  16  19
ATOM     19  O   UNL     1      33.358  -2.927  32.989  1.00  0.00    -0.445 OA
BRANCH  19  20
ATOM     20  C   UNL     1      33.336  -4.372  32.947  1.00  0.00     0.270 C 
BRANCH  20  21
ATOM     21  C   UNL     1      33.798  -4.971  31.628  1.00  0.00    -0.011 A 
ATOM     22  C   UNL     1      34.379  -4.187  30.621  1.00  0.00     0.007 A 
ATOM     23  C   UNL     1      33.762  -6.367  31.443  1.00  0.00     0.007 A 
ATOM     24  C   UNL     1      34.911  -4.780  29.466  1.00  0.00     0.000 A 
ATOM     25  C   UNL     1      34.274  -6.956  30.283  1.00  0.00     0.000 A 
ATOM     26  C   UNL     1      34.863  -6.164  29.300  1.00  0.00     0.000 A 
ENDBRANCH  20  21
ENDBRANCH  19  20
ENDBRANCH  16  19
ENDBRANCH  14  15
BRANCH  14  27
ATOM     27  C   UNL     1      36.781  -3.641  36.296  1.00  0.00     0.247 C 
ATOM     28  O   UNL     1      36.038  -3.636  37.280  1.00  0.00    -0.272 OA
ATOM     29  N   UNL     1      37.925  -4.412  36.194  1.00  0.00    -0.324 N 
ATOM     30  H   UNL     1      38.651  -4.011  35.614  1.00  0.00     0.170 HD
BRANCH  29  31
ATOM     31  C   UNL     1      38.307  -5.185  37.306  1.00  0.00     0.041 A 
ATOM     32  C   UNL     1      37.800  -6.480  37.475  1.00  0.00     0.026 A 
ATOM     33  C   UNL     1      39.110  -4.608  38.283  1.00  0.00     0.026 A 
ATOM     34  C   UNL     1      38.051  -7.177  38.653  1.00  0.00     0.002 A 
ATOM     35  C   UNL     1      39.322  -5.292  39.480  1.00  0.00     0.002 A 
ATOM     36  C   UNL     1      38.792  -6.571  39.666  1.00  0.00     0.000 A 
ENDBRANCH  29  31
ENDBRANCH  14  27
ENDBRANCH  13  14
ENDBRANCH  12  13
ENDBRANCH   1  12
TORSDOF 15
ENDMDL
MODEL 3
REMARK VINA RESULT:    -7.152     10.074     13.321
REMARK INTER + INTRA:         -14.851
REMARK INTER:                 -12.566
REMARK INTRA:                  -2.284
REMARK UNBOUND:                -1.636
REMARK SMILES O=C(O)CC(=S)NCCCC[C@@H](NC(=O)OCc1ccccc1)C(=O)Nc1ccccc1
REMARK SMILES IDX 9 1 8 2 7 3 5 5 6 6 4 7 2 8 1 9 3 10 10 12 11 13 12 14 13 15
REMARK SMILES IDX 14 16 15 18 16 19 17 20 18 21 19 22 23 23 20 24 22 25 21 26
REMARK SMILES IDX 24 27 25 28 26 29 27 31 28 32 32 33 29 34 31 35 30 36
REMARK H PARENT 7 4 3 11 13 17 26 30
REMARK Flexibility Score: inf
ROOT
ATOM      1  C   UNL     1      29.839   5.730  32.655  1.00  0.00     0.021 C 
ENDROOT
BRANCH   1   2
ATOM      2  C   UNL     1      28.390   5.596  33.095  1.00  0.00     0.113 C 
BRANCH   2   3
ATOM      3  N   UNL     1      27.811   6.781  33.674  1.00  0.00    -0.379 N 
ATOM      4  H   UNL     1      27.056   7.205  33.142  1.00  0.00     0.161 HD
BRANCH   3   5
ATOM      5  C   UNL     1      28.515   7.683  34.428  1.00  0.00     0.087 C 
ATOM      6  S   UNL     1      28.876   7.269  36.007  1.00  0.00    -0.065 S 
BRANCH   5   7
ATOM      7  C   UNL     1      28.768   9.049  33.836  1.00  0.00     0.188 C 
BRANCH   7   8
ATOM      8  C   UNL     1      27.672   9.654  33.012  1.00  0.00     0.310 C 
ATOM      9  O   UNL     1      27.802  10.327  32.001  1.00  0.00    -0.252 OA
BRANCH   8  10
ATOM     10  O   UNL     1      26.451   9.269  33.461  1.00  0.00    -0.481 OA
ATOM     11  H   UNL     1      25.797   9.139  32.744  1.00  0.00     0.296 HD
ENDBRANCH   8  10
ENDBRANCH   7   8
ENDBRANCH   5   7
ENDBRANCH   3   5
ENDBRANCH   2   3
ENDBRANCH   1   2
BRANCH   1  12
ATOM     12  C   UNL     1      30.165   4.900  31.405  1.00  0.00     0.004 C 
BRANCH  12  13
ATOM     13  C   UNL     1      31.652   4.636  31.140  1.00  0.00     0.035 C 
BRANCH  13  14
ATOM     14  C   UNL     1      32.540   4.212  32.334  1.00  0.00     0.175 C 
BRANCH  14  15
ATOM     15  N   UNL     1      32.260   2.837  32.768  1.00  0.00    -0.310 N 
ATOM     16  C   UNL     1      31.529   2.552  33.896  1.00  0.00     0.408 C 
ATOM     17  H   UNL     1      32.358   2.081  32.103  1.00  0.00     0.167 HD
ATOM     18  O   UNL     1      31.294   3.352  34.786  1.00  0.00    -0.225 OA
BRANCH  16  19
ATOM     19  O   UNL     1      31.062   1.274  33.848  1.00  0.00    -0.445 OA
BRANCH  19  20
ATOM     20  C   UNL     1      30.416   0.876  32.619  1.00  0.00     0.270 C 
BRANCH  20  21
ATOM     21  C   UNL     1      28.989   1.378  32.466  1.00  0.00    -0.011 A 
ATOM     22  C   UNL     1      28.083   1.374  33.537  1.00  0.00     0.007 A 
ATOM     23  C   UNL     1      28.584   1.979  31.258  1.00  0.00     0.007 A 
ATOM     24  C   UNL     1      26.814   1.957  33.405  1.00  0.00     0.000 A 
ATOM     25  C   UNL     1      27.312   2.543  31.121  1.00  0.00     0.000 A 
ATOM     26  C   UNL     1      26.431   2.545  32.200  1.00  0.00     0.000 A 
ENDBRANCH  20  21
ENDBRANCH  19  20
ENDBRANCH  16  19
ENDBRANCH  14  15
BRANCH  14  27
ATOM     27  C   UNL     1      33.990   4.617  32.030  1.00  0.00     0.247 C 
ATOM     28  O   UNL     1      34.859   3.761  31.850  1.00  0.00    -0.272 OA
ATOM     29  N   UNL     1      34.177   5.968  31.799  1.00  0.00    -0.324 N 
ATOM     30  H   UNL     1      33.622   6.575  32.388  1.00  0.00     0.170 HD
BRANCH  29  31
ATOM     31  C   UNL     1      35.455   6.405  31.404  1.00  0.00     0.041 A 
ATOM     32  C   UNL     1      36.392   6.809  32.363  1.00  0.00     0.026 A 
ATOM     33  C   UNL     1      35.737   6.524  30.047  1.00  0.00     0.026 A 
ATOM     34  C   UNL     1      37.592   7.391  31.962  1.00  0.00     0.002 A 
ATOM     35  C   UNL     1      36.920   7.147  29.651  1.00  0.00     0.002 A 
ATOM     36  C   UNL     1      37.844   7.582  30.605  1.00  0.00     0.000 A 
ENDBRANCH  29  31
ENDBRANCH  14  27
ENDBRANCH  13  14
ENDBRANCH  12  13
ENDBRANCH   1  12
TORSDOF 15
ENDMDL
MODEL 4
REMARK VINA RESULT:    -7.119      3.204      6.629
REMARK INTER + INTRA:         -14.790
REMARK INTER:                 -13.196
REMARK INTRA:                  -1.594
REMARK UNBOUND:                -1.636
REMARK SMILES O=C(O)CC(=S)NCCCC[C@@H](NC(=O)OCc1ccccc1)C(=O)Nc1ccccc1
REMARK SMILES IDX 9 1 8 2 7 3 5 5 6 6 4 7 2 8 1 9 3 10 10 12 11 13 12 14 13 15
REMARK SMILES IDX 14 16 15 18 16 19 17 20 18 21 19 22 23 23 20 24 22 25 21 26
REMARK SMILES IDX 24 27 25 28 26 29 27 31 28 32 32 33 29 34 31 35 30 36
REMARK H PARENT 7 4 3 11 13 17 26 30
REMARK Flexibility Score: inf
ROOT
ATOM      1  C   UNL     1      37.558  -8.238  31.950  1.00  0.00     0.021 C 
ENDROOT
BRANCH   1   2
ATOM      2  C   UNL     1      37.212  -9.259  33.021  1.00  0.00     0.113 C 
BRANCH   2   3
ATOM      3  N   UNL     1      37.872 -10.533  32.894  1.00  0.00    -0.379 N 
ATOM      4  H   UNL     1      38.651 -10.560  32.242  1.00  0.00     0.161 HD
BRANCH   3   5
ATOM      5  C   UNL     1      37.233 -11.738  33.023  1.00  0.00     0.087 C 
ATOM      6  S   UNL     1      36.088 -11.890  34.233  1.00  0.00    -0.065 S 
BRANCH   5   7
ATOM      7  C   UNL     1      37.724 -12.890  32.178  1.00  0.00     0.188 C 
BRANCH   7   8
ATOM      8  C   UNL     1      36.704 -13.628  31.365  1.00  0.00     0.310 C 
ATOM      9  O   UNL     1      35.723 -14.223  31.785  1.00  0.00    -0.252 OA
BRANCH   8  10
ATOM     10  O   UNL     1      36.928 -13.470  30.037  1.00  0.00    -0.481 OA
ATOM     11  H   UNL     1      37.863 -13.611  29.780  1.00  0.00     0.296 HD
ENDBRANCH   8  10
ENDBRANCH   7   8
ENDBRANCH   5   7
ENDBRANCH   3   5
ENDBRANCH   2   3
ENDBRANCH   1   2
BRANCH   1  12
ATOM     12  C   UNL     1      37.170  -6.804  32.340  1.00  0.00     0.004 C 
BRANCH  12  13
ATOM     13  C   UNL     1      36.991  -6.538  33.839  1.00  0.00     0.035 C 
BRANCH  13  14
ATOM     14  C   UNL     1      37.215  -5.096  34.354  1.00  0.00     0.175 C 
BRANCH  14  15
ATOM     15  N   UNL     1      36.272  -4.143  33.754  1.00  0.00    -0.310 N 
ATOM     16  C   UNL     1      36.682  -3.086  32.976  1.00  0.00     0.408 C 
ATOM     17  H   UNL     1      35.298  -4.402  33.667  1.00  0.00     0.167 HD
ATOM     18  O   UNL     1      37.824  -2.659  32.941  1.00  0.00    -0.225 OA
BRANCH  16  19
ATOM     19  O   UNL     1      35.650  -2.627  32.217  1.00  0.00    -0.445 OA
BRANCH  19  20
ATOM     20  C   UNL     1      34.442  -3.420  32.234  1.00  0.00     0.270 C 
BRANCH  20  21
ATOM     21  C   UNL     1      34.410  -4.540  31.206  1.00  0.00    -0.011 A 
ATOM     22  C   UNL     1      35.026  -4.414  29.952  1.00  0.00     0.007 A 
ATOM     23  C   UNL     1      33.858  -5.789  31.549  1.00  0.00     0.007 A 
ATOM     24  C   UNL     1      35.092  -5.503  29.071  1.00  0.00     0.000 A 
ATOM     25  C   UNL     1      33.905  -6.870  30.663  1.00  0.00     0.000 A 
ATOM     26  C   UNL     1      34.536  -6.732  29.429  1.00  0.00     0.000 A 
ENDBRANCH  20  21
ENDBRANCH  19  20
ENDBRANCH  16  19
ENDBRANCH  14  15
BRANCH  14  27
ATOM     27  C   UNL     1      37.357  -5.142  35.882  1.00  0.00     0.247 C 
ATOM     28  O   UNL     1      36.401  -4.869  36.612  1.00  0.00    -0.272 OA
ATOM     29  N   UNL     1      38.548  -5.678  36.337  1.00  0.00    -0.324 N 
ATOM     30  H   UNL     1      39.359  -5.427  35.787  1.00  0.00     0.170 HD
BRANCH  29  31
ATOM     31  C   UNL     1      38.710  -5.858  37.723  1.00  0.00     0.041 A 
ATOM     32  C   UNL     1      38.158  -6.978  38.360  1.00  0.00     0.026 A 
ATOM     33  C   UNL     1      39.334  -4.861  38.464  1.00  0.00     0.026 A 
ATOM     34  C   UNL     1      38.181  -7.070  39.749  1.00  0.00     0.002 A 
ATOM     35  C   UNL     1      39.315  -4.936  39.856  1.00  0.00     0.002 A 
ATOM     36  C   UNL     1      38.738  -6.035  40.498  1.00  0.00     0.000 A 
ENDBRANCH  29  31
ENDBRANCH  14  27
ENDBRANCH  13  14
ENDBRANCH  12  13
ENDBRANCH   1  12
TORSDOF 15
ENDMDL
MODEL 5
REMARK VINA RESULT:    -7.091      7.042     10.827
REMARK INTER + INTRA:         -14.739
REMARK INTER:                 -13.654
REMARK INTRA:                  -1.085
REMARK UNBOUND:                -1.636
REMARK SMILES O=C(O)CC(=S)NCCCC[C@@H](NC(=O)OCc1ccccc1)C(=O)Nc1ccccc1
REMARK SMILES IDX 9 1 8 2 7 3 5 5 6 6 4 7 2 8 1 9 3 10 10 12 11 13 12 14 13 15
REMARK SMILES IDX 14 16 15 18 16 19 17 20 18 21 19 22 23 23 20 24 22 25 21 26
REMARK SMILES IDX 24 27 25 28 26 29 27 31 28 32 32 33 29 34 31 35 30 36
REMARK H PARENT 7 4 3 11 13 17 26 30
REMARK Flexibility Score: inf
ROOT
ATOM      1  C   UNL     1      29.867   5.489  32.338  1.00  0.00     0.021 C 
ENDROOT
BRANCH   1   2
ATOM      2  C   UNL     1      28.920   4.581  33.105  1.00  0.00     0.113 C 
BRANCH   2   3
ATOM      3  N   UNL     1      28.279   3.557  32.320  1.00  0.00    -0.379 N 
ATOM      4  H   UNL     1      27.715   3.889  31.544  1.00  0.00     0.161 HD
BRANCH   3   5
ATOM      5  C   UNL     1      27.843   2.364  32.835  1.00  0.00     0.087 C 
ATOM      6  S   UNL     1      26.767   2.411  34.114  1.00  0.00    -0.065 S 
BRANCH   5   7
ATOM      7  C   UNL     1      28.490   1.099  32.323  1.00  0.00     0.188 C 
BRANCH   7   8
ATOM      8  C   UNL     1      29.977   0.983  32.464  1.00  0.00     0.310 C 
ATOM      9  O   UNL     1      30.716   1.740  33.076  1.00  0.00    -0.252 OA
BRANCH   8  10
ATOM     10  O   UNL     1      30.435  -0.166  31.908  1.00  0.00    -0.481 OA
ATOM     11  H   UNL     1      30.391  -0.935  32.512  1.00  0.00     0.296 HD
ENDBRANCH   8  10
ENDBRANCH   7   8
ENDBRANCH   5   7
ENDBRANCH   3   5
ENDBRANCH   2   3
ENDBRANCH   1   2
BRANCH   1  12
ATOM     12  C   UNL     1      30.465   4.817  31.093  1.00  0.00     0.004 C 
BRANCH  12  13
ATOM     13  C   UNL     1      31.995   4.773  31.020  1.00  0.00     0.035 C 
BRANCH  13  14
ATOM     14  C   UNL     1      32.792   4.938  32.336  1.00  0.00     0.175 C 
BRANCH  14  15
ATOM     15  N   UNL     1      33.050   3.649  32.991  1.00  0.00    -0.310 N 
ATOM     16  C   UNL     1      33.930   2.724  32.483  1.00  0.00     0.408 C 
ATOM     17  H   UNL     1      32.801   3.532  33.964  1.00  0.00     0.167 HD
ATOM     18  O   UNL     1      34.352   2.730  31.338  1.00  0.00    -0.225 OA
BRANCH  16  19
ATOM     19  O   UNL     1      34.302   1.842  33.450  1.00  0.00    -0.445 OA
BRANCH  19  20
ATOM     20  C   UNL     1      35.713   1.540  33.531  1.00  0.00     0.270 C 
BRANCH  20  21
ATOM     21  C   UNL     1      36.030   0.157  34.076  1.00  0.00    -0.011 A 
ATOM     22  C   UNL     1      37.107  -0.601  33.591  1.00  0.00     0.007 A 
ATOM     23  C   UNL     1      35.312  -0.343  35.179  1.00  0.00     0.007 A 
ATOM     24  C   UNL     1      37.456  -1.818  34.194  1.00  0.00     0.000 A 
ATOM     25  C   UNL     1      35.648  -1.566  35.767  1.00  0.00     0.000 A 
ATOM     26  C   UNL     1      36.730  -2.298  35.284  1.00  0.00     0.000 A 
ENDBRANCH  20  21
ENDBRANCH  19  20
ENDBRANCH  16  19
ENDBRANCH  14  15
BRANCH  14  27
ATOM     27  C   UNL     1      33.969   5.891  32.076  1.00  0.00     0.247 C 
ATOM     28  O   UNL     1      34.240   6.789  32.875  1.00  0.00    -0.272 OA
ATOM     29  N   UNL     1      34.773   5.538  31.007  1.00  0.00    -0.324 N 
ATOM     30  H   UNL     1      34.272   5.164  30.211  1.00  0.00     0.170 HD
BRANCH  29  31
ATOM     31  C   UNL     1      35.935   6.296  30.771  1.00  0.00     0.041 A 
ATOM     32  C   UNL     1      36.718   6.743  31.843  1.00  0.00     0.026 A 
ATOM     33  C   UNL     1      36.236   6.679  29.469  1.00  0.00     0.026 A 
ATOM     34  C   UNL     1      37.771   7.624  31.617  1.00  0.00     0.002 A 
ATOM     35  C   UNL     1      37.264   7.597  29.251  1.00  0.00     0.002 A 
ATOM     36  C   UNL     1      38.027   8.070  30.321  1.00  0.00     0.000 A 
ENDBRANCH  29  31
ENDBRANCH  14  27
ENDBRANCH  13  14
ENDBRANCH  12  13
ENDBRANCH   1  12
TORSDOF 15
ENDMDL
MODEL 6
REMARK VINA RESULT:    -7.088      3.432      8.313
REMARK INTER + INTRA:         -14.733
REMARK INTER:                 -13.333
REMARK INTRA:                  -1.401
REMARK UNBOUND:                -1.636
REMARK SMILES O=C(O)CC(=S)NCCCC[C@@H](NC(=O)OCc1ccccc1)C(=O)Nc1ccccc1
REMARK SMILES IDX 9 1 8 2 7 3 5 5 6 6 4 7 2 8 1 9 3 10 10 12 11 13 12 14 13 15
REMARK SMILES IDX 14 16 15 18 16 19 17 20 18 21 19 22 23 23 20 24 22 25 21 26
REMARK SMILES IDX 24 27 25 28 26 29 27 31 28 32 32 33 29 34 31 35 30 36
REMARK H PARENT 7 4 3 11 13 17 26 30
REMARK Flexibility Score: inf
ROOT
ATOM      1  C   UNL     1      37.142  -4.691  31.707  1.00  0.00     0.021 C 
ENDROOT
BRANCH   1   2
ATOM      2  C   UNL     1      37.145  -5.978  32.515  1.00  0.00     0.113 C 
BRANCH   2   3
ATOM      3  N   UNL     1      37.054  -7.190  31.741  1.00  0.00    -0.379 N 
ATOM      4  H   UNL     1      37.512  -7.167  30.835  1.00  0.00     0.161 HD
BRANCH   3   5
ATOM      5  C   UNL     1      35.982  -8.043  31.785  1.00  0.00     0.087 C 
ATOM      6  S   UNL     1      34.471  -7.417  31.434  1.00  0.00    -0.065 S 
BRANCH   5   7
ATOM      7  C   UNL     1      36.215  -9.441  32.306  1.00  0.00     0.188 C 
BRANCH   7   8
ATOM      8  C   UNL     1      37.611  -9.980  32.226  1.00  0.00     0.310 C 
ATOM      9  O   UNL     1      38.286 -10.403  33.152  1.00  0.00    -0.252 OA
BRANCH   8  10
ATOM     10  O   UNL     1      38.033 -10.059  30.940  1.00  0.00    -0.481 OA
ATOM     11  H   UNL     1      37.615 -10.788  30.437  1.00  0.00     0.296 HD
ENDBRANCH   8  10
ENDBRANCH   7   8
ENDBRANCH   5   7
ENDBRANCH   3   5
ENDBRANCH   2   3
ENDBRANCH   1   2
BRANCH   1  12
ATOM     12  C   UNL     1      36.701  -3.469  32.527  1.00  0.00     0.004 C 
BRANCH  12  13
ATOM     13  C   UNL     1      37.820  -2.537  33.003  1.00  0.00     0.035 C 
BRANCH  13  14
ATOM     14  C   UNL     1      37.576  -1.702  34.284  1.00  0.00     0.175 C 
BRANCH  14  15
ATOM     15  N   UNL     1      36.556  -0.665  34.080  1.00  0.00    -0.310 N 
ATOM     16  C   UNL     1      36.785   0.460  33.325  1.00  0.00     0.408 C 
ATOM     17  H   UNL     1      35.585  -0.888  34.256  1.00  0.00     0.167 HD
ATOM     18  O   UNL     1      37.891   0.859  33.001  1.00  0.00    -0.225 OA
BRANCH  16  19
ATOM     19  O   UNL     1      35.607   1.026  32.948  1.00  0.00    -0.445 OA
BRANCH  19  20
ATOM     20  C   UNL     1      35.669   2.402  32.512  1.00  0.00     0.270 C 
BRANCH  20  21
ATOM     21  C   UNL     1      34.315   3.066  32.326  1.00  0.00    -0.011 A 
ATOM     22  C   UNL     1      34.092   4.032  31.333  1.00  0.00     0.007 A 
ATOM     23  C   UNL     1      33.209   2.624  33.079  1.00  0.00     0.007 A 
ATOM     24  C   UNL     1      32.805   4.537  31.099  1.00  0.00     0.000 A 
ATOM     25  C   UNL     1      31.930   3.143  32.858  1.00  0.00     0.000 A 
ATOM     26  C   UNL     1      31.724   4.089  31.857  1.00  0.00     0.000 A 
ENDBRANCH  20  21
ENDBRANCH  19  20
ENDBRANCH  16  19
ENDBRANCH  14  15
BRANCH  14  27
ATOM     27  C   UNL     1      37.434  -2.665  35.472  1.00  0.00     0.247 C 
ATOM     28  O   UNL     1      36.376  -2.738  36.100  1.00  0.00    -0.272 OA
ATOM     29  N   UNL     1      38.495  -3.537  35.640  1.00  0.00    -0.324 N 
ATOM     30  H   UNL     1      39.404  -3.134  35.455  1.00  0.00     0.170 HD
BRANCH  29  31
ATOM     31  C   UNL     1      38.392  -4.525  36.637  1.00  0.00     0.041 A 
ATOM     32  C   UNL     1      38.862  -4.274  37.933  1.00  0.00     0.026 A 
ATOM     33  C   UNL     1      37.911  -5.783  36.292  1.00  0.00     0.026 A 
ATOM     34  C   UNL     1      38.906  -5.304  38.869  1.00  0.00     0.002 A 
ATOM     35  C   UNL     1      37.999  -6.822  37.218  1.00  0.00     0.002 A 
ATOM     36  C   UNL     1      38.497  -6.584  38.502  1.00  0.00     0.000 A 
ENDBRANCH  29  31
ENDBRANCH  14  27
ENDBRANCH  13  14
ENDBRANCH  12  13
ENDBRANCH   1  12
TORSDOF 15
ENDMDL
MODEL 7
REMARK VINA RESULT:    -7.006      3.060      8.780
REMARK INTER + INTRA:         -14.581
REMARK INTER:                 -12.926
REMARK INTRA:                  -1.655
REMARK UNBOUND:                -1.636
REMARK SMILES O=C(O)CC(=S)NCCCC[C@@H](NC(=O)OCc1ccccc1)C(=O)Nc1ccccc1
REMARK SMILES IDX 9 1 8 2 7 3 5 5 6 6 4 7 2 8 1 9 3 10 10 12 11 13 12 14 13 15
REMARK SMILES IDX 14 16 15 18 16 19 17 20 18 21 19 22 23 23 20 24 22 25 21 26
REMARK SMILES IDX 24 27 25 28 26 29 27 31 28 32 32 33 29 34 31 35 30 36
REMARK H PARENT 7 4 3 11 13 17 26 30
REMARK Flexibility Score: inf
ROOT
ATOM      1  C   UNL     1      37.088  -4.442  31.107  1.00  0.00     0.021 C 
ENDROOT
BRANCH   1   2
ATOM      2  C   UNL     1      37.036  -5.936  30.833  1.00  0.00     0.113 C 
BRANCH   2   3
ATOM      3  N   UNL     1      35.785  -6.424  30.311  1.00  0.00    -0.379 N 
ATOM      4  H   UNL     1      35.442  -5.950  29.481  1.00  0.00     0.161 HD
BRANCH   3   5
ATOM      5  C   UNL     1      34.784  -6.940  31.092  1.00  0.00     0.087 C 
ATOM      6  S   UNL     1      34.997  -8.474  31.722  1.00  0.00    -0.065 S 
BRANCH   5   7
ATOM      7  C   UNL     1      33.493  -6.162  31.188  1.00  0.00     0.188 C 
BRANCH   7   8
ATOM      8  C   UNL     1      33.497  -4.759  30.660  1.00  0.00     0.310 C 
ATOM      9  O   UNL     1      33.502  -4.419  29.486  1.00  0.00    -0.252 OA
BRANCH   8  10
ATOM     10  O   UNL     1      33.374  -3.856  31.664  1.00  0.00    -0.481 OA
ATOM     11  H   UNL     1      32.767  -4.146  32.376  1.00  0.00     0.296 HD
ENDBRANCH   8  10
ENDBRANCH   7   8
ENDBRANCH   5   7
ENDBRANCH   3   5
ENDBRANCH   2   3
ENDBRANCH   1   2
BRANCH   1  12
ATOM     12  C   UNL     1      36.976  -4.102  32.601  1.00  0.00     0.004 C 
BRANCH  12  13
ATOM     13  C   UNL     1      37.885  -2.976  33.106  1.00  0.00     0.035 C 
BRANCH  13  14
ATOM     14  C   UNL     1      37.458  -2.214  34.383  1.00  0.00     0.175 C 
BRANCH  14  15
ATOM     15  N   UNL     1      36.291  -1.353  34.148  1.00  0.00    -0.310 N 
ATOM     16  C   UNL     1      36.233  -0.050  34.582  1.00  0.00     0.408 C 
ATOM     17  H   UNL     1      35.628  -1.608  33.428  1.00  0.00     0.167 HD
ATOM     18  O   UNL     1      36.972   0.428  35.426  1.00  0.00    -0.225 OA
BRANCH  16  19
ATOM     19  O   UNL     1      35.278   0.635  33.898  1.00  0.00    -0.445 OA
BRANCH  19  20
ATOM     20  C   UNL     1      35.703   1.858  33.257  1.00  0.00     0.270 C 
BRANCH  20  21
ATOM     21  C   UNL     1      34.573   2.687  32.668  1.00  0.00    -0.011 A 
ATOM     22  C   UNL     1      34.740   3.445  31.500  1.00  0.00     0.007 A 
ATOM     23  C   UNL     1      33.283   2.608  33.227  1.00  0.00     0.007 A 
ATOM     24  C   UNL     1      33.651   4.100  30.907  1.00  0.00     0.000 A 
ATOM     25  C   UNL     1      32.201   3.277  32.647  1.00  0.00     0.000 A 
ATOM     26  C   UNL     1      32.381   4.012  31.477  1.00  0.00     0.000 A 
ENDBRANCH  20  21
ENDBRANCH  19  20
ENDBRANCH  16  19
ENDBRANCH  14  15
BRANCH  14  27
ATOM     27  C   UNL     1      37.429  -3.207  35.555  1.00  0.00     0.247 C 
ATOM     28  O   UNL     1      36.373  -3.460  36.139  1.00  0.00    -0.272 OA
ATOM     29  N   UNL     1      38.609  -3.900  35.756  1.00  0.00    -0.324 N 
ATOM     30  H   UNL     1      39.447  -3.352  35.611  1.00  0.00     0.170 HD
BRANCH  29  31
ATOM     31  C   UNL     1      38.629  -4.907  36.737  1.00  0.00     0.041 A 
ATOM     32  C   UNL     1      38.255  -6.218  36.414  1.00  0.00     0.026 A 
ATOM     33  C   UNL     1      38.926  -4.563  38.051  1.00  0.00     0.026 A 
ATOM     34  C   UNL     1      38.120  -7.172  37.418  1.00  0.00     0.002 A 
ATOM     35  C   UNL     1      38.748  -5.509  39.059  1.00  0.00     0.002 A 
ATOM     36  C   UNL     1      38.344  -6.809  38.745  1.00  0.00     0.000 A 
ENDBRANCH  29  31
ENDBRANCH  14  27
ENDBRANCH  13  14
ENDBRANCH  12  13
ENDBRANCH   1  12
TORSDOF 15
ENDMDL
MODEL 8
REMARK VINA RESULT:    -6.998      3.187      8.913
REMARK INTER + INTRA:         -14.567
REMARK INTER:                 -13.209
REMARK INTRA:                  -1.358
REMARK UNBOUND:                -1.636
REMARK SMILES O=C(O)CC(=S)NCCCC[C@@H](NC(=O)OCc1ccccc1)C(=O)Nc1ccccc1
REMARK SMILES IDX 9 1 8 2 7 3 5 5 6 6 4 7 2 8 1 9 3 10 10 12 11 13 12 14 13 15
REMARK SMILES IDX 14 16 15 18 16 19 17 20 18 21 19 22 23 23 20 24 22 25 21 26
REMARK SMILES IDX 24 27 25 28 26 29 27 31 28 32 32 33 29 34 31 35 30 36
REMARK H PARENT 7 4 3 11 13 17 26 30
REMARK Flexibility Score: inf
ROOT
ATOM      1  C   UNL     1      35.115  -4.271  33.145  1.00  0.00     0.021 C 
ENDROOT
BRANCH   1   2
ATOM      2  C   UNL     1      33.850  -4.769  32.466  1.00  0.00     0.113 C 
BRANCH   2   3
ATOM      3  N   UNL     1      33.801  -6.189  32.222  1.00  0.00    -0.379 N 
ATOM      4  H   UNL     1      33.528  -6.761  33.015  1.00  0.00     0.161 HD
BRANCH   3   5
ATOM      5  C   UNL     1      34.628  -6.840  31.345  1.00  0.00     0.087 C 
ATOM      6  S   UNL     1      35.817  -7.830  31.979  1.00  0.00    -0.065 S 
BRANCH   5   7
ATOM      7  C   UNL     1      34.518  -6.488  29.880  1.00  0.00     0.188 C 
BRANCH   7   8
ATOM      8  C   UNL     1      35.336  -5.333  29.388  1.00  0.00     0.310 C 
ATOM      9  O   UNL     1      36.554  -5.268  29.337  1.00  0.00    -0.252 OA
BRANCH   8  10
ATOM     10  O   UNL     1      34.547  -4.358  28.873  1.00  0.00    -0.481 OA
ATOM     11  H   UNL     1      34.915  -3.946  28.063  1.00  0.00     0.296 HD
ENDBRANCH   8  10
ENDBRANCH   7   8
ENDBRANCH   5   7
ENDBRANCH   3   5
ENDBRANCH   2   3
ENDBRANCH   1   2
BRANCH   1  12
ATOM     12  C   UNL     1      35.626  -2.946  32.561  1.00  0.00     0.004 C 
BRANCH  12  13
ATOM     13  C   UNL     1      37.073  -2.572  32.903  1.00  0.00     0.035 C 
BRANCH  13  14
ATOM     14  C   UNL     1      37.320  -1.665  34.132  1.00  0.00     0.175 C 
BRANCH  14  15
ATOM     15  N   UNL     1      36.450  -0.482  34.129  1.00  0.00    -0.310 N 
ATOM     16  C   UNL     1      36.676   0.600  33.313  1.00  0.00     0.408 C 
ATOM     17  H   UNL     1      35.518  -0.555  34.516  1.00  0.00     0.167 HD
ATOM     18  O   UNL     1      37.732   0.828  32.747  1.00  0.00    -0.225 OA
BRANCH  16  19
ATOM     19  O   UNL     1      35.544   1.344  33.187  1.00  0.00    -0.445 OA
BRANCH  19  20
ATOM     20  C   UNL     1      35.663   2.566  32.425  1.00  0.00     0.270 C 
BRANCH  20  21
ATOM     21  C   UNL     1      34.338   3.228  32.085  1.00  0.00    -0.011 A 
ATOM     22  C   UNL     1      33.139   2.855  32.711  1.00  0.00     0.007 A 
ATOM     23  C   UNL     1      34.312   4.332  31.210  1.00  0.00     0.007 A 
ATOM     24  C   UNL     1      31.953   3.564  32.472  1.00  0.00     0.000 A 
ATOM     25  C   UNL     1      33.124   5.026  30.957  1.00  0.00     0.000 A 
ATOM     26  C   UNL     1      31.947   4.652  31.600  1.00  0.00     0.000 A 
ENDBRANCH  20  21
ENDBRANCH  19  20
ENDBRANCH  16  19
ENDBRANCH  14  15
BRANCH  14  27
ATOM     27  C   UNL     1      37.371  -2.550  35.386  1.00  0.00     0.247 C 
ATOM     28  O   UNL     1      36.490  -2.476  36.245  1.00  0.00    -0.272 OA
ATOM     29  N   UNL     1      38.352  -3.526  35.367  1.00  0.00    -0.324 N 
ATOM     30  H   UNL     1      39.226  -3.234  34.949  1.00  0.00     0.170 HD
BRANCH  29  31
ATOM     31  C   UNL     1      38.393  -4.448  36.429  1.00  0.00     0.041 A 
ATOM     32  C   UNL     1      38.919  -4.074  37.672  1.00  0.00     0.026 A 
ATOM     33  C   UNL     1      37.998  -5.761  36.196  1.00  0.00     0.026 A 
ATOM     34  C   UNL     1      39.107  -5.030  38.666  1.00  0.00     0.002 A 
ATOM     35  C   UNL     1      38.228  -6.724  37.178  1.00  0.00     0.002 A 
ATOM     36  C   UNL     1      38.783  -6.361  38.408  1.00  0.00     0.000 A 
ENDBRANCH  29  31
ENDBRANCH  14  27
ENDBRANCH  13  14
ENDBRANCH  12  13
ENDBRANCH   1  12
TORSDOF 15
ENDMDL
MODEL 9
REMARK VINA RESULT:    -6.965      6.779     10.495
REMARK INTER + INTRA:         -14.505
REMARK INTER:                 -12.623
REMARK INTRA:                  -1.882
REMARK UNBOUND:                -1.636
REMARK SMILES O=C(O)CC(=S)NCCCC[C@@H](NC(=O)OCc1ccccc1)C(=O)Nc1ccccc1
REMARK SMILES IDX 9 1 8 2 7 3 5 5 6 6 4 7 2 8 1 9 3 10 10 12 11 13 12 14 13 15
REMARK SMILES IDX 14 16 15 18 16 19 17 20 18 21 19 22 23 23 20 24 22 25 21 26
REMARK SMILES IDX 24 27 25 28 26 29 27 31 28 32 32 33 29 34 31 35 30 36
REMARK H PARENT 7 4 3 11 13 17 26 30
REMARK Flexibility Score: inf
ROOT
ATOM      1  C   UNL     1      32.783   1.585  35.435  1.00  0.00     0.021 C 
ENDROOT
BRANCH   1   2
ATOM      2  C   UNL     1      33.451   0.381  34.793  1.00  0.00     0.113 C 
BRANCH   2   3
ATOM      3  N   UNL     1      34.842   0.199  35.125  1.00  0.00    -0.379 N 
ATOM      4  H   UNL     1      35.424   1.027  35.044  1.00  0.00     0.161 HD
BRANCH   3   5
ATOM      5  C   UNL     1      35.529  -0.968  34.913  1.00  0.00     0.087 C 
ATOM      6  S   UNL     1      35.267  -2.232  35.975  1.00  0.00    -0.065 S 
BRANCH   5   7
ATOM      7  C   UNL     1      36.594  -0.973  33.842  1.00  0.00     0.188 C 
BRANCH   7   8
ATOM      8  C   UNL     1      36.890   0.329  33.162  1.00  0.00     0.310 C 
ATOM      9  O   UNL     1      36.135   0.968  32.445  1.00  0.00    -0.252 OA
BRANCH   8  10
ATOM     10  O   UNL     1      38.104   0.809  33.529  1.00  0.00    -0.481 OA
ATOM     11  H   UNL     1      38.065   1.426  34.289  1.00  0.00     0.296 HD
ENDBRANCH   8  10
ENDBRANCH   7   8
ENDBRANCH   5   7
ENDBRANCH   3   5
ENDBRANCH   2   3
ENDBRANCH   1   2
BRANCH   1  12
ATOM     12  C   UNL     1      32.302   2.622  34.409  1.00  0.00     0.004 C 
BRANCH  12  13
ATOM     13  C   UNL     1      33.071   2.667  33.084  1.00  0.00     0.035 C 
BRANCH  13  14
ATOM     14  C   UNL     1      32.887   3.907  32.177  1.00  0.00     0.175 C 
BRANCH  14  15
ATOM     15  N   UNL     1      31.842   4.809  32.681  1.00  0.00    -0.310 N 
ATOM     16  C   UNL     1      30.727   5.133  31.946  1.00  0.00     0.408 C 
ATOM     17  H   UNL     1      31.783   4.986  33.675  1.00  0.00     0.167 HD
ATOM     18  O   UNL     1      30.621   4.964  30.743  1.00  0.00    -0.225 OA
BRANCH  16  19
ATOM     19  O   UNL     1      29.747   5.613  32.759  1.00  0.00    -0.445 OA
BRANCH  19  20
ATOM     20  C   UNL     1      29.256   4.707  33.771  1.00  0.00     0.270 C 
BRANCH  20  21
ATOM     21  C   UNL     1      28.392   3.576  33.238  1.00  0.00    -0.011 A 
ATOM     22  C   UNL     1      27.125   3.808  32.683  1.00  0.00     0.007 A 
ATOM     23  C   UNL     1      28.910   2.268  33.179  1.00  0.00     0.007 A 
ATOM     24  C   UNL     1      26.401   2.767  32.085  1.00  0.00     0.000 A 
ATOM     25  C   UNL     1      28.180   1.225  32.600  1.00  0.00     0.000 A 
ATOM     26  C   UNL     1      26.931   1.477  32.039  1.00  0.00     0.000 A 
ENDBRANCH  20  21
ENDBRANCH  19  20
ENDBRANCH  16  19
ENDBRANCH  14  15
BRANCH  14  27
ATOM     27  C   UNL     1      34.273   4.481  31.850  1.00  0.00     0.247 C 
ATOM     28  O   UNL     1      35.216   3.734  31.581  1.00  0.00    -0.272 OA
ATOM     29  N   UNL     1      34.311   5.857  31.706  1.00  0.00    -0.324 N 
ATOM     30  H   UNL     1      33.722   6.362  32.355  1.00  0.00     0.170 HD
BRANCH  29  31
ATOM     31  C   UNL     1      35.520   6.449  31.297  1.00  0.00     0.041 A 
ATOM     32  C   UNL     1      36.472   6.842  32.246  1.00  0.00     0.026 A 
ATOM     33  C   UNL     1      35.710   6.730  29.949  1.00  0.00     0.026 A 
ATOM     34  C   UNL     1      37.590   7.571  31.851  1.00  0.00     0.002 A 
ATOM     35  C   UNL     1      36.808   7.499  29.563  1.00  0.00     0.002 A 
ATOM     36  C   UNL     1      37.744   7.920  30.511  1.00  0.00     0.000 A 
ENDBRANCH  29  31
ENDBRANCH  14  27
ENDBRANCH  13  14
ENDBRANCH  12  13
ENDBRANCH   1  12
TORSDOF 15
ENDMDL
