MODEL 1
REMARK VINA RESULT:    -8.731      0.000      0.000
REMARK INTER + INTRA:         -34.503
REMARK INTER:                 -27.870
REMARK INTRA:                  -6.632
REMARK UNBOUND:                -6.632
REMARK SMILES C=C(N[C@H](CCCCNC(=O)C[C@@H](Sc1ccc2ccccc2c1)C(=O)O)C(=O)N[C@H](CCC(=O)O)C(=O)N[C@H](Cc1ccc(O)cc1)C(=O)NCC(=O)N[C@@H](C(N)=O)C(C)C)[C@@H](CCC)NC(=O)[C@@H](NC(=O)CNC)C(C)C
REMARK SMILES IDX 4 1 3 2 2 4 1 5 63 6 64 7 65 8 66 9 67 10 68 11 69 13 70 14
REMARK SMILES IDX 71 15 72 16 73 18 74 19 75 20 76 21 77 23 78 24 79 25 5 26
REMARK SMILES IDX 6 27 7 28 8 29 9 30 10 31 11 33 12 34 13 35 14 36 15 37
REMARK SMILES IDX 16 38 24 39 17 40 23 41 18 42 22 43 19 44 21 45 20 46 25 47
REMARK SMILES IDX 26 48 27 49 28 51 29 52 30 53 31 55 32 56 33 57 34 58 35 59
REMARK SMILES IDX 36 60 37 62 38 63 39 64 40 66 41 67 42 68 43 69 48 70 44 71
REMARK SMILES IDX 47 72 45 73 46 74 49 76 50 77 51 78 52 80 53 81 54 82 55 83
REMARK SMILES IDX 56 85 57 86 58 87 59 88 60 91 61 92 62 93
REMARK H PARENT 3 3 67 12 71 17 75 22 9 32 27 50 30 54 36 61 39 65 46 75 51 79
REMARK H PARENT 55 84 58 89 58 90
REMARK Flexibility Score: inf
ROOT
ATOM      1  C   UNL     1      56.510  32.605 -30.423  1.00  0.00     0.168 C 
ENDROOT
BRANCH   1   2
ATOM      2  N   UNL     1      56.283  31.283 -29.762  1.00  0.00    -0.376 N 
ATOM      3  H   UNL     1      55.320  30.955 -29.959  1.00  0.00     0.161 HD
BRANCH   2   4
ATOM      4  C   UNL     1      57.090  30.153 -29.573  1.00  0.00     0.027 C 
ATOM      5  C   UNL     1      58.311  30.217 -29.013  1.00  0.00     0.034 C 
BRANCH   4   6
ATOM      6  C   UNL     1      56.522  28.725 -29.893  1.00  0.00     0.128 C 
BRANCH   6   7
ATOM      7  C   UNL     1      57.524  27.864 -30.720  1.00  0.00     0.031 C 
BRANCH   7   8
ATOM      8  C   UNL     1      58.052  26.627 -29.966  1.00  0.00    -0.001 C 
ATOM      9  C   UNL     1      57.544  25.308 -30.541  1.00  0.00     0.004 C 
ENDBRANCH   7   8
ENDBRANCH   6   7
BRANCH   6  10
ATOM     10  N   UNL     1      55.865  27.970 -28.811  1.00  0.00    -0.346 N 
ATOM     11  C   UNL     1      56.032  27.922 -27.451  1.00  0.00     0.243 C 
ATOM     12  H   UNL     1      55.064  27.428 -29.132  1.00  0.00     0.164 HD
ATOM     13  O   UNL     1      56.799  28.661 -26.824  1.00  0.00    -0.273 OA
BRANCH  11  14
ATOM     14  C   UNL     1      55.130  26.880 -26.695  1.00  0.00     0.173 C 
BRANCH  14  15
ATOM     15  N   UNL     1      53.807  27.448 -26.397  1.00  0.00    -0.343 N 
ATOM     16  C   UNL     1      53.529  28.252 -25.320  1.00  0.00     0.234 C 
ATOM     17  H   UNL     1      53.000  27.139 -26.937  1.00  0.00     0.164 HD
ATOM     18  O   UNL     1      54.382  28.508 -24.459  1.00  0.00    -0.274 OA
BRANCH  16  19
ATOM     19  C   UNL     1      52.133  28.877 -25.292  1.00  0.00     0.181 C 
BRANCH  19  20
ATOM     20  N   UNL     1      52.204  30.348 -25.372  1.00  0.00    -0.311 NA
ATOM     21  C   UNL     1      51.810  30.931 -24.086  1.00  0.00     0.101 C 
ATOM     22  H   UNL     1      51.539  30.666 -26.079  1.00  0.00     0.122 HD
ENDBRANCH  19  20
ENDBRANCH  16  19
ENDBRANCH  14  15
BRANCH  14  23
ATOM     23  C   UNL     1      55.074  25.468 -27.357  1.00  0.00     0.015 C 
ATOM     24  C   UNL     1      56.379  24.691 -27.139  1.00  0.00     0.010 C 
ATOM     25  C   UNL     1      53.921  24.599 -26.825  1.00  0.00     0.010 C 
ENDBRANCH  14  23
ENDBRANCH  11  14
ENDBRANCH   6  10
ENDBRANCH   4   6
ENDBRANCH   2   4
ENDBRANCH   1   2
BRANCH   1  26
ATOM     26  C   UNL     1      57.848  33.312 -30.122  1.00  0.00     0.035 C 
BRANCH  26  27
ATOM     27  C   UNL     1      58.969  33.212 -31.164  1.00  0.00     0.004 C 
BRANCH  27  28
ATOM     28  C   UNL     1      60.387  33.345 -30.600  1.00  0.00     0.021 C 
BRANCH  28  29
ATOM     29  C   UNL     1      60.368  33.246 -29.074  1.00  0.00     0.116 C 
BRANCH  29  30
ATOM     30  N   UNL     1      61.060  34.348 -28.441  1.00  0.00    -0.356 N 
ATOM     31  C   UNL     1      60.377  35.489 -28.068  1.00  0.00     0.221 C 
ATOM     32  H   UNL     1      62.054  34.277 -28.265  1.00  0.00     0.163 HD
ATOM     33  O   UNL     1      59.188  35.671 -28.302  1.00  0.00    -0.275 OA
BRANCH  31  34
ATOM     34  C   UNL     1      61.243  36.516 -27.377  1.00  0.00     0.126 C 
BRANCH  34  35
ATOM     35  C   UNL     1      60.472  37.789 -27.036  1.00  0.00     0.170 C 
BRANCH  35  36
ATOM     36  S   UNL     1      60.368  38.179 -25.222  1.00  0.00    -0.110 SA
BRANCH  36  37
ATOM     37  C   UNL     1      58.728  37.632 -24.782  1.00  0.00     0.009 A 
ATOM     38  C   UNL     1      58.370  37.498 -23.439  1.00  0.00     0.016 A 
ATOM     39  C   UNL     1      57.748  37.487 -25.768  1.00  0.00     0.023 A 
ATOM     40  C   UNL     1      57.045  37.231 -23.081  1.00  0.00     0.010 A 
ATOM     41  C   UNL     1      56.412  37.225 -25.425  1.00  0.00    -0.017 A 
ATOM     42  C   UNL     1      56.052  37.116 -24.060  1.00  0.00    -0.018 A 
ATOM     43  C   UNL     1      55.413  37.100 -26.404  1.00  0.00     0.009 A 
ATOM     44  C   UNL     1      54.706  36.922 -23.716  1.00  0.00     0.009 A 
ATOM     45  C   UNL     1      54.078  36.905 -26.042  1.00  0.00     0.001 A 
ATOM     46  C   UNL     1      53.725  36.829 -24.698  1.00  0.00     0.001 A 
ENDBRANCH  36  37
ENDBRANCH  35  36
BRANCH  35  47
ATOM     47  C   UNL     1      61.019  38.978 -27.818  1.00  0.00     0.317 C 
ATOM     48  O   UNL     1      61.229  40.082 -27.335  1.00  0.00    -0.251 OA
BRANCH  47  49
ATOM     49  O   UNL     1      61.344  38.697 -29.104  1.00  0.00    -0.480 OA
ATOM     50  H   UNL     1      62.262  38.982 -29.303  1.00  0.00     0.296 HD
ENDBRANCH  47  49
ENDBRANCH  35  47
ENDBRANCH  34  35
ENDBRANCH  31  34
ENDBRANCH  29  30
ENDBRANCH  28  29
ENDBRANCH  27  28
ENDBRANCH  26  27
ENDBRANCH   1  26
BRANCH   1  51
ATOM     51  C   UNL     1      55.340  33.637 -30.266  1.00  0.00     0.243 C 
ATOM     52  O   UNL     1      55.527  34.740 -29.752  1.00  0.00    -0.273 OA
ATOM     53  N   UNL     1      54.090  33.223 -30.638  1.00  0.00    -0.343 N 
ATOM     54  H   UNL     1      54.137  32.382 -31.206  1.00  0.00     0.164 HD
BRANCH  53  55
ATOM     55  C   UNL     1      52.851  34.005 -30.769  1.00  0.00     0.172 C 
BRANCH  55  56
ATOM     56  C   UNL     1      51.754  33.320 -31.598  1.00  0.00     0.047 C 
BRANCH  56  57
ATOM     57  C   UNL     1      50.606  32.771 -30.769  1.00  0.00     0.125 C 
BRANCH  57  58
ATOM     58  C   UNL     1      50.192  33.758 -29.711  1.00  0.00     0.303 C 
ATOM     59  O   UNL     1      50.717  33.854 -28.625  1.00  0.00    -0.252 OA
BRANCH  58  60
ATOM     60  O   UNL     1      49.152  34.550 -30.066  1.00  0.00    -0.481 OA
ATOM     61  H   UNL     1      49.398  35.490 -30.079  1.00  0.00     0.296 HD
ENDBRANCH  58  60
ENDBRANCH  57  58
ENDBRANCH  56  57
ENDBRANCH  55  56
BRANCH  55  62
ATOM     62  C   UNL     1      52.855  35.498 -31.198  1.00  0.00     0.243 C 
ATOM     63  O   UNL     1      53.009  35.810 -32.382  1.00  0.00    -0.273 OA
ATOM     64  N   UNL     1      52.875  36.442 -30.216  1.00  0.00    -0.342 N 
ATOM     65  H   UNL     1      52.870  36.116 -29.249  1.00  0.00     0.164 HD
BRANCH  64  66
ATOM     66  C   UNL     1      53.226  37.852 -30.448  1.00  0.00     0.175 C 
BRANCH  66  67
ATOM     67  C   UNL     1      54.281  38.336 -29.427  1.00  0.00     0.070 C 
BRANCH  67  68
ATOM     68  C   UNL     1      55.640  38.718 -29.991  1.00  0.00    -0.045 A 
ATOM     69  C   UNL     1      55.794  39.791 -30.883  1.00  0.00     0.007 A 
ATOM     70  C   UNL     1      56.794  38.042 -29.559  1.00  0.00     0.007 A 
ATOM     71  C   UNL     1      57.066  40.178 -31.328  1.00  0.00     0.046 A 
ATOM     72  C   UNL     1      58.063  38.426 -30.003  1.00  0.00     0.046 A 
ATOM     73  C   UNL     1      58.191  39.494 -30.879  1.00  0.00     0.115 A 
BRANCH  73  74
ATOM     74  O   UNL     1      59.448  39.849 -31.267  1.00  0.00    -0.508 OA
ATOM     75  H   UNL     1      60.055  39.718 -30.521  1.00  0.00     0.293 HD
ENDBRANCH  73  74
ENDBRANCH  67  68
ENDBRANCH  66  67
BRANCH  66  76
ATOM     76  C   UNL     1      51.963  38.766 -30.392  1.00  0.00     0.243 C 
ATOM     77  O   UNL     1      50.846  38.350 -30.089  1.00  0.00    -0.273 OA
ATOM     78  N   UNL     1      52.205  40.113 -30.557  1.00  0.00    -0.345 N 
ATOM     79  H   UNL     1      53.174  40.430 -30.551  1.00  0.00     0.164 HD
BRANCH  78  80
ATOM     80  C   UNL     1      51.173  41.128 -30.464  1.00  0.00     0.216 C 
BRANCH  80  81
ATOM     81  C   UNL     1      51.593  42.407 -31.210  1.00  0.00     0.240 C 
ATOM     82  O   UNL     1      50.903  43.426 -31.243  1.00  0.00    -0.273 OA
ATOM     83  N   UNL     1      52.817  42.332 -31.841  1.00  0.00    -0.343 N 
ATOM     84  H   UNL     1      53.465  41.601 -31.571  1.00  0.00     0.164 HD
BRANCH  83  85
ATOM     85  C   UNL     1      53.354  43.463 -32.612  1.00  0.00     0.173 C 
BRANCH  85  86
ATOM     86  C   UNL     1      54.070  44.400 -31.617  1.00  0.00     0.240 C 
ATOM     87  N   UNL     1      53.348  45.497 -31.239  1.00  0.00    -0.368 N 
ATOM     88  O   UNL     1      55.166  44.168 -31.115  1.00  0.00    -0.273 OA
ATOM     89  H   UNL     1      52.336  45.495 -31.361  1.00  0.00     0.159 HD
ATOM     90  H   UNL     1      53.735  46.073 -30.504  1.00  0.00     0.159 HD
ENDBRANCH  85  86
BRANCH  85  91
ATOM     91  C   UNL     1      54.315  42.985 -33.725  1.00  0.00     0.015 C 
ATOM     92  C   UNL     1      53.813  41.690 -34.374  1.00  0.00     0.010 C 
ATOM     93  C   UNL     1      54.477  44.048 -34.820  1.00  0.00     0.010 C 
ENDBRANCH  85  91
ENDBRANCH  83  85
ENDBRANCH  80  81
ENDBRANCH  78  80
ENDBRANCH  66  76
ENDBRANCH  64  66
ENDBRANCH  55  62
ENDBRANCH  53  55
ENDBRANCH   1  51
TORSDOF 39
ENDMDL
MODEL 2
REMARK VINA RESULT:    -8.626      2.895      8.735
REMARK INTER + INTRA:         -34.168
REMARK INTER:                 -28.905
REMARK INTRA:                  -5.263
REMARK UNBOUND:                -6.632
REMARK SMILES C=C(N[C@H](CCCCNC(=O)C[C@@H](Sc1ccc2ccccc2c1)C(=O)O)C(=O)N[C@H](CCC(=O)O)C(=O)N[C@H](Cc1ccc(O)cc1)C(=O)NCC(=O)N[C@@H](C(N)=O)C(C)C)[C@@H](CCC)NC(=O)[C@@H](NC(=O)CNC)C(C)C
REMARK SMILES IDX 4 1 3 2 2 4 1 5 63 6 64 7 65 8 66 9 67 10 68 11 69 13 70 14
REMARK SMILES IDX 71 15 72 16 73 18 74 19 75 20 76 21 77 23 78 24 79 25 5 26
REMARK SMILES IDX 6 27 7 28 8 29 9 30 10 31 11 33 12 34 13 35 14 36 15 37
REMARK SMILES IDX 16 38 24 39 17 40 23 41 18 42 22 43 19 44 21 45 20 46 25 47
REMARK SMILES IDX 26 48 27 49 28 51 29 52 30 53 31 55 32 56 33 57 34 58 35 59
REMARK SMILES IDX 36 60 37 62 38 63 39 64 40 66 41 67 42 68 43 69 48 70 44 71
REMARK SMILES IDX 47 72 45 73 46 74 49 76 50 77 51 78 52 80 53 81 54 82 55 83
REMARK SMILES IDX 56 85 57 86 58 87 59 88 60 91 61 92 62 93
REMARK H PARENT 3 3 67 12 71 17 75 22 9 32 27 50 30 54 36 61 39 65 46 75 51 79
REMARK H PARENT 55 84 58 89 58 90
REMARK Flexibility Score: inf
ROOT
ATOM      1  C   UNL     1      59.997  34.397 -28.987  1.00  0.00     0.168 C 
ENDROOT
BRANCH   1   2
ATOM      2  N   UNL     1      60.935  34.721 -27.867  1.00  0.00    -0.376 N 
ATOM      3  H   UNL     1      61.339  33.847 -27.487  1.00  0.00     0.161 HD
BRANCH   2   4
ATOM      4  C   UNL     1      61.864  35.748 -27.661  1.00  0.00     0.027 C 
ATOM      5  C   UNL     1      63.097  35.734 -28.199  1.00  0.00     0.034 C 
BRANCH   4   6
ATOM      6  C   UNL     1      61.436  37.046 -26.889  1.00  0.00     0.128 C 
BRANCH   6   7
ATOM      7  C   UNL     1      61.411  38.301 -27.814  1.00  0.00     0.031 C 
BRANCH   7   8
ATOM      8  C   UNL     1      62.215  39.496 -27.264  1.00  0.00    -0.001 C 
ATOM      9  C   UNL     1      61.803  40.833 -27.874  1.00  0.00     0.004 C 
ENDBRANCH   7   8
ENDBRANCH   6   7
BRANCH   6  10
ATOM     10  N   UNL     1      60.277  36.975 -25.981  1.00  0.00    -0.346 N 
ATOM     11  C   UNL     1      59.967  37.579 -24.790  1.00  0.00     0.243 C 
ATOM     12  H   UNL     1      59.508  36.420 -26.356  1.00  0.00     0.164 HD
ATOM     13  O   UNL     1      60.659  38.456 -24.261  1.00  0.00    -0.273 OA
BRANCH  11  14
ATOM     14  C   UNL     1      58.615  37.122 -24.131  1.00  0.00     0.173 C 
BRANCH  14  15
ATOM     15  N   UNL     1      58.689  37.209 -22.665  1.00  0.00    -0.343 N 
ATOM     16  C   UNL     1      58.748  36.128 -21.823  1.00  0.00     0.234 C 
ATOM     17  H   UNL     1      58.562  38.114 -22.214  1.00  0.00     0.164 HD
ATOM     18  O   UNL     1      58.672  34.965 -22.246  1.00  0.00    -0.274 OA
BRANCH  16  19
ATOM     19  C   UNL     1      58.996  36.441 -20.346  1.00  0.00     0.181 C 
BRANCH  19  20
ATOM     20  N   UNL     1      58.380  35.423 -19.473  1.00  0.00    -0.311 NA
ATOM     21  C   UNL     1      59.315  35.059 -18.404  1.00  0.00     0.101 C 
ATOM     22  H   UNL     1      58.197  34.587 -20.031  1.00  0.00     0.122 HD
ENDBRANCH  19  20
ENDBRANCH  16  19
ENDBRANCH  14  15
BRANCH  14  23
ATOM     23  C   UNL     1      57.340  37.786 -24.738  1.00  0.00     0.015 C 
ATOM     24  C   UNL     1      57.011  37.214 -26.123  1.00  0.00     0.010 C 
ATOM     25  C   UNL     1      56.092  37.613 -23.854  1.00  0.00     0.010 C 
ENDBRANCH  14  23
ENDBRANCH  11  14
ENDBRANCH   6  10
ENDBRANCH   4   6
ENDBRANCH   2   4
ENDBRANCH   1   2
BRANCH   1  26
ATOM     26  C   UNL     1      60.388  33.218 -29.902  1.00  0.00     0.035 C 
BRANCH  26  27
ATOM     27  C   UNL     1      60.323  31.800 -29.321  1.00  0.00     0.004 C 
BRANCH  27  28
ATOM     28  C   UNL     1      59.413  30.833 -30.084  1.00  0.00     0.021 C 
BRANCH  28  29
ATOM     29  C   UNL     1      58.080  30.662 -29.353  1.00  0.00     0.116 C 
BRANCH  29  30
ATOM     30  N   UNL     1      57.677  29.276 -29.256  1.00  0.00    -0.356 N 
ATOM     31  C   UNL     1      56.437  28.869 -29.706  1.00  0.00     0.221 C 
ATOM     32  H   UNL     1      58.315  28.598 -28.859  1.00  0.00     0.163 HD
ATOM     33  O   UNL     1      55.590  29.640 -30.142  1.00  0.00    -0.275 OA
BRANCH  31  34
ATOM     34  C   UNL     1      56.201  27.383 -29.574  1.00  0.00     0.126 C 
BRANCH  34  35
ATOM     35  C   UNL     1      57.346  26.675 -28.853  1.00  0.00     0.170 C 
BRANCH  35  36
ATOM     36  S   UNL     1      56.823  25.546 -27.473  1.00  0.00    -0.110 SA
BRANCH  36  37
ATOM     37  C   UNL     1      55.276  26.251 -26.935  1.00  0.00     0.009 A 
ATOM     38  C   UNL     1      54.115  25.475 -26.932  1.00  0.00     0.016 A 
ATOM     39  C   UNL     1      55.246  27.528 -26.365  1.00  0.00     0.023 A 
ATOM     40  C   UNL     1      52.936  25.964 -26.359  1.00  0.00     0.010 A 
ATOM     41  C   UNL     1      54.072  28.030 -25.780  1.00  0.00    -0.017 A 
ATOM     42  C   UNL     1      52.906  27.228 -25.760  1.00  0.00    -0.018 A 
ATOM     43  C   UNL     1      54.034  29.301 -25.185  1.00  0.00     0.009 A 
ATOM     44  C   UNL     1      51.754  27.703 -25.116  1.00  0.00     0.009 A 
ATOM     45  C   UNL     1      52.877  29.758 -24.550  1.00  0.00     0.001 A 
ATOM     46  C   UNL     1      51.743  28.953 -24.506  1.00  0.00     0.001 A 
ENDBRANCH  36  37
ENDBRANCH  35  36
BRANCH  35  47
ATOM     47  C   UNL     1      58.240  25.944 -29.847  1.00  0.00     0.317 C 
ATOM     48  O   UNL     1      57.831  25.368 -30.846  1.00  0.00    -0.251 OA
BRANCH  47  49
ATOM     49  O   UNL     1      59.566  26.047 -29.587  1.00  0.00    -0.480 OA
ATOM     50  H   UNL     1      59.752  25.864 -28.642  1.00  0.00     0.296 HD
ENDBRANCH  47  49
ENDBRANCH  35  47
ENDBRANCH  34  35
ENDBRANCH  31  34
ENDBRANCH  29  30
ENDBRANCH  28  29
ENDBRANCH  27  28
ENDBRANCH  26  27
ENDBRANCH   1  26
BRANCH   1  51
ATOM     51  C   UNL     1      59.578  35.618 -29.877  1.00  0.00     0.243 C 
ATOM     52  O   UNL     1      60.105  35.821 -30.971  1.00  0.00    -0.273 OA
ATOM     53  N   UNL     1      58.673  36.496 -29.345  1.00  0.00    -0.343 N 
ATOM     54  H   UNL     1      58.203  36.093 -28.540  1.00  0.00     0.164 HD
BRANCH  53  55
ATOM     55  C   UNL     1      57.971  37.615 -29.992  1.00  0.00     0.172 C 
BRANCH  55  56
ATOM     56  C   UNL     1      58.711  38.958 -29.910  1.00  0.00     0.047 C 
BRANCH  56  57
ATOM     57  C   UNL     1      59.357  39.386 -31.217  1.00  0.00     0.125 C 
BRANCH  57  58
ATOM     58  C   UNL     1      58.518  40.425 -31.913  1.00  0.00     0.303 C 
ATOM     59  O   UNL     1      57.834  41.244 -31.342  1.00  0.00    -0.252 OA
BRANCH  58  60
ATOM     60  O   UNL     1      58.578  40.372 -33.265  1.00  0.00    -0.481 OA
ATOM     61  H   UNL     1      58.335  39.494 -33.605  1.00  0.00     0.296 HD
ENDBRANCH  58  60
ENDBRANCH  57  58
ENDBRANCH  56  57
ENDBRANCH  55  56
BRANCH  55  62
ATOM     62  C   UNL     1      56.473  37.923 -29.717  1.00  0.00     0.243 C 
ATOM     63  O   UNL     1      56.074  39.089 -29.653  1.00  0.00    -0.273 OA
ATOM     64  N   UNL     1      55.665  36.885 -29.361  1.00  0.00    -0.342 N 
ATOM     65  H   UNL     1      56.086  35.957 -29.311  1.00  0.00     0.164 HD
BRANCH  64  66
ATOM     66  C   UNL     1      54.341  37.058 -28.742  1.00  0.00     0.175 C 
BRANCH  66  67
ATOM     67  C   UNL     1      53.857  35.742 -28.091  1.00  0.00     0.070 C 
BRANCH  67  68
ATOM     68  C   UNL     1      52.994  34.839 -28.958  1.00  0.00    -0.045 A 
ATOM     69  C   UNL     1      53.548  34.037 -29.967  1.00  0.00     0.007 A 
ATOM     70  C   UNL     1      51.615  34.732 -28.704  1.00  0.00     0.007 A 
ATOM     71  C   UNL     1      52.746  33.150 -30.700  1.00  0.00     0.046 A 
ATOM     72  C   UNL     1      50.815  33.850 -29.435  1.00  0.00     0.046 A 
ATOM     73  C   UNL     1      51.386  33.061 -30.423  1.00  0.00     0.115 A 
BRANCH  73  74
ATOM     74  O   UNL     1      50.573  32.198 -31.095  1.00  0.00    -0.508 OA
ATOM     75  H   UNL     1      49.902  32.709 -31.576  1.00  0.00     0.293 HD
ENDBRANCH  73  74
ENDBRANCH  67  68
ENDBRANCH  66  67
BRANCH  66  76
ATOM     76  C   UNL     1      53.293  37.564 -29.781  1.00  0.00     0.243 C 
ATOM     77  O   UNL     1      53.341  37.279 -30.977  1.00  0.00    -0.273 OA
ATOM     78  N   UNL     1      52.212  38.232 -29.246  1.00  0.00    -0.345 N 
ATOM     79  H   UNL     1      52.093  38.218 -28.234  1.00  0.00     0.164 HD
BRANCH  78  80
ATOM     80  C   UNL     1      51.097  38.712 -30.040  1.00  0.00     0.216 C 
BRANCH  80  81
ATOM     81  C   UNL     1      51.366  40.136 -30.559  1.00  0.00     0.240 C 
ATOM     82  O   UNL     1      50.807  41.136 -30.108  1.00  0.00    -0.273 OA
ATOM     83  N   UNL     1      52.297  40.215 -31.574  1.00  0.00    -0.343 N 
ATOM     84  H   UNL     1      52.924  39.433 -31.727  1.00  0.00     0.164 HD
BRANCH  83  85
ATOM     85  C   UNL     1      52.654  41.500 -32.191  1.00  0.00     0.173 C 
BRANCH  85  86
ATOM     86  C   UNL     1      53.363  42.347 -31.113  1.00  0.00     0.240 C 
ATOM     87  N   UNL     1      52.748  43.532 -30.817  1.00  0.00    -0.368 N 
ATOM     88  O   UNL     1      54.352  41.981 -30.486  1.00  0.00    -0.273 OA
ATOM     89  H   UNL     1      51.766  43.658 -31.058  1.00  0.00     0.159 HD
ATOM     90  H   UNL     1      53.118  44.060 -30.039  1.00  0.00     0.159 HD
ENDBRANCH  85  86
BRANCH  85  91
ATOM     91  C   UNL     1      53.555  41.302 -33.432  1.00  0.00     0.015 C 
ATOM     92  C   UNL     1      54.045  42.646 -33.983  1.00  0.00     0.010 C 
ATOM     93  C   UNL     1      54.778  40.435 -33.103  1.00  0.00     0.010 C 
ENDBRANCH  85  91
ENDBRANCH  83  85
ENDBRANCH  80  81
ENDBRANCH  78  80
ENDBRANCH  66  76
ENDBRANCH  64  66
ENDBRANCH  55  62
ENDBRANCH  53  55
ENDBRANCH   1  51
TORSDOF 39
ENDMDL
MODEL 3
REMARK VINA RESULT:    -8.573      3.085      9.279
REMARK INTER + INTRA:         -34.000
REMARK INTER:                 -26.001
REMARK INTRA:                  -7.999
REMARK UNBOUND:                -6.632
REMARK SMILES C=C(N[C@H](CCCCNC(=O)C[C@@H](Sc1ccc2ccccc2c1)C(=O)O)C(=O)N[C@H](CCC(=O)O)C(=O)N[C@H](Cc1ccc(O)cc1)C(=O)NCC(=O)N[C@@H](C(N)=O)C(C)C)[C@@H](CCC)NC(=O)[C@@H](NC(=O)CNC)C(C)C
REMARK SMILES IDX 4 1 3 2 2 4 1 5 63 6 64 7 65 8 66 9 67 10 68 11 69 13 70 14
REMARK SMILES IDX 71 15 72 16 73 18 74 19 75 20 76 21 77 23 78 24 79 25 5 26
REMARK SMILES IDX 6 27 7 28 8 29 9 30 10 31 11 33 12 34 13 35 14 36 15 37
REMARK SMILES IDX 16 38 24 39 17 40 23 41 18 42 22 43 19 44 21 45 20 46 25 47
REMARK SMILES IDX 26 48 27 49 28 51 29 52 30 53 31 55 32 56 33 57 34 58 35 59
REMARK SMILES IDX 36 60 37 62 38 63 39 64 40 66 41 67 42 68 43 69 48 70 44 71
REMARK SMILES IDX 47 72 45 73 46 74 49 76 50 77 51 78 52 80 53 81 54 82 55 83
REMARK SMILES IDX 56 85 57 86 58 87 59 88 60 91 61 92 62 93
REMARK H PARENT 3 3 67 12 71 17 75 22 9 32 27 50 30 54 36 61 39 65 46 75 51 79
REMARK H PARENT 55 84 58 89 58 90
REMARK Flexibility Score: inf
ROOT
ATOM      1  C   UNL     1      58.925  36.388 -28.190  1.00  0.00     0.168 C 
ENDROOT
BRANCH   1   2
ATOM      2  N   UNL     1      60.187  37.188 -28.254  1.00  0.00    -0.376 N 
ATOM      3  H   UNL     1      60.371  37.625 -27.334  1.00  0.00     0.161 HD
BRANCH   2   4
ATOM      4  C   UNL     1      61.421  36.984 -28.886  1.00  0.00     0.027 C 
ATOM      5  C   UNL     1      62.406  36.249 -28.339  1.00  0.00     0.034 C 
BRANCH   4   6
ATOM      6  C   UNL     1      61.645  37.507 -30.349  1.00  0.00     0.128 C 
BRANCH   6   7
ATOM      7  C   UNL     1      61.851  36.343 -31.365  1.00  0.00     0.031 C 
BRANCH   7   8
ATOM      8  C   UNL     1      60.664  36.139 -32.328  1.00  0.00    -0.001 C 
ATOM      9  C   UNL     1      60.527  34.702 -32.822  1.00  0.00     0.004 C 
ENDBRANCH   7   8
ENDBRANCH   6   7
BRANCH   6  10
ATOM     10  N   UNL     1      60.764  38.572 -30.859  1.00  0.00    -0.346 N 
ATOM     11  C   UNL     1      60.988  39.797 -31.432  1.00  0.00     0.243 C 
ATOM     12  H   UNL     1      59.778  38.308 -30.860  1.00  0.00     0.164 HD
ATOM     13  O   UNL     1      62.110  40.224 -31.728  1.00  0.00    -0.273 OA
BRANCH  11  14
ATOM     14  C   UNL     1      59.702  40.641 -31.753  1.00  0.00     0.173 C 
BRANCH  14  15
ATOM     15  N   UNL     1      59.768  41.963 -31.113  1.00  0.00    -0.343 N 
ATOM     16  C   UNL     1      58.796  42.481 -30.295  1.00  0.00     0.234 C 
ATOM     17  H   UNL     1      60.512  42.607 -31.379  1.00  0.00     0.164 HD
ATOM     18  O   UNL     1      57.731  41.884 -30.086  1.00  0.00    -0.274 OA
BRANCH  16  19
ATOM     19  C   UNL     1      59.141  43.798 -29.595  1.00  0.00     0.181 C 
BRANCH  19  20
ATOM     20  N   UNL     1      58.593  44.953 -30.329  1.00  0.00    -0.311 NA
ATOM     21  C   UNL     1      59.679  45.667 -31.009  1.00  0.00     0.101 C 
ATOM     22  H   UNL     1      58.169  45.594 -29.655  1.00  0.00     0.122 HD
ENDBRANCH  19  20
ENDBRANCH  16  19
ENDBRANCH  14  15
BRANCH  14  23
ATOM     23  C   UNL     1      59.318  40.691 -33.265  1.00  0.00     0.015 C 
ATOM     24  C   UNL     1      59.993  41.870 -33.979  1.00  0.00     0.010 C 
ATOM     25  C   UNL     1      59.698  39.408 -34.025  1.00  0.00     0.010 C 
ENDBRANCH  14  23
ENDBRANCH  11  14
ENDBRANCH   6  10
ENDBRANCH   4   6
ENDBRANCH   2   4
ENDBRANCH   1   2
BRANCH   1  26
ATOM     26  C   UNL     1      58.732  35.305 -29.272  1.00  0.00     0.035 C 
BRANCH  26  27
ATOM     27  C   UNL     1      59.412  33.946 -29.063  1.00  0.00     0.004 C 
BRANCH  27  28
ATOM     28  C   UNL     1      59.006  32.862 -30.066  1.00  0.00     0.021 C 
BRANCH  28  29
ATOM     29  C   UNL     1      59.705  31.541 -29.739  1.00  0.00     0.116 C 
BRANCH  29  30
ATOM     30  N   UNL     1      58.769  30.454 -29.549  1.00  0.00    -0.356 N 
ATOM     31  C   UNL     1      58.764  29.369 -30.402  1.00  0.00     0.221 C 
ATOM     32  H   UNL     1      58.114  30.488 -28.776  1.00  0.00     0.163 HD
ATOM     33  O   UNL     1      59.483  29.286 -31.391  1.00  0.00    -0.275 OA
BRANCH  31  34
ATOM     34  C   UNL     1      57.758  28.306 -30.029  1.00  0.00     0.126 C 
BRANCH  34  35
ATOM     35  C   UNL     1      58.016  27.725 -28.640  1.00  0.00     0.170 C 
BRANCH  35  36
ATOM     36  S   UNL     1      56.772  26.467 -28.074  1.00  0.00    -0.110 SA
BRANCH  36  37
ATOM     37  C   UNL     1      55.808  27.362 -26.869  1.00  0.00     0.009 A 
ATOM     38  C   UNL     1      56.323  28.516 -26.276  1.00  0.00     0.016 A 
ATOM     39  C   UNL     1      54.478  27.005 -26.629  1.00  0.00     0.023 A 
ATOM     40  C   UNL     1      55.517  29.314 -25.458  1.00  0.00     0.010 A 
ATOM     41  C   UNL     1      53.653  27.799 -25.816  1.00  0.00    -0.017 A 
ATOM     42  C   UNL     1      54.176  28.981 -25.238  1.00  0.00    -0.018 A 
ATOM     43  C   UNL     1      52.309  27.466 -25.585  1.00  0.00     0.009 A 
ATOM     44  C   UNL     1      53.333  29.809 -24.481  1.00  0.00     0.009 A 
ATOM     45  C   UNL     1      51.486  28.302 -24.827  1.00  0.00     0.001 A 
ATOM     46  C   UNL     1      51.996  29.478 -24.287  1.00  0.00     0.001 A 
ENDBRANCH  36  37
ENDBRANCH  35  36
BRANCH  35  47
ATOM     47  C   UNL     1      59.434  27.173 -28.541  1.00  0.00     0.317 C 
ATOM     48  O   UNL     1      59.900  26.333 -29.298  1.00  0.00    -0.251 OA
BRANCH  47  49
ATOM     49  O   UNL     1      60.193  27.753 -27.579  1.00  0.00    -0.480 OA
ATOM     50  H   UNL     1      60.142  28.731 -27.636  1.00  0.00     0.296 HD
ENDBRANCH  47  49
ENDBRANCH  35  47
ENDBRANCH  34  35
ENDBRANCH  31  34
ENDBRANCH  29  30
ENDBRANCH  28  29
ENDBRANCH  27  28
ENDBRANCH  26  27
ENDBRANCH   1  26
BRANCH   1  51
ATOM     51  C   UNL     1      57.608  37.232 -28.072  1.00  0.00     0.243 C 
ATOM     52  O   UNL     1      57.147  37.834 -29.042  1.00  0.00    -0.273 OA
ATOM     53  N   UNL     1      57.051  37.347 -26.828  1.00  0.00    -0.343 N 
ATOM     54  H   UNL     1      57.432  36.653 -26.191  1.00  0.00     0.164 HD
BRANCH  53  55
ATOM     55  C   UNL     1      55.751  37.914 -26.439  1.00  0.00     0.172 C 
BRANCH  55  56
ATOM     56  C   UNL     1      55.399  37.731 -24.954  1.00  0.00     0.047 C 
BRANCH  56  57
ATOM     57  C   UNL     1      55.713  38.942 -24.093  1.00  0.00     0.125 C 
BRANCH  57  58
ATOM     58  C   UNL     1      56.922  38.686 -23.233  1.00  0.00     0.303 C 
ATOM     59  O   UNL     1      56.946  38.827 -22.030  1.00  0.00    -0.252 OA
BRANCH  58  60
ATOM     60  O   UNL     1      58.018  38.284 -23.920  1.00  0.00    -0.481 OA
ATOM     61  H   UNL     1      58.487  37.564 -23.466  1.00  0.00     0.296 HD
ENDBRANCH  58  60
ENDBRANCH  57  58
ENDBRANCH  56  57
ENDBRANCH  55  56
BRANCH  55  62
ATOM     62  C   UNL     1      54.449  37.625 -27.235  1.00  0.00     0.243 C 
ATOM     63  O   UNL     1      53.760  36.636 -26.974  1.00  0.00    -0.273 OA
ATOM     64  N   UNL     1      54.199  38.381 -28.341  1.00  0.00    -0.342 N 
ATOM     65  H   UNL     1      54.875  39.108 -28.577  1.00  0.00     0.164 HD
BRANCH  64  66
ATOM     66  C   UNL     1      53.219  38.013 -29.375  1.00  0.00     0.175 C 
BRANCH  66  67
ATOM     67  C   UNL     1      53.926  37.542 -30.667  1.00  0.00     0.070 C 
BRANCH  67  68
ATOM     68  C   UNL     1      53.998  36.039 -30.887  1.00  0.00    -0.045 A 
ATOM     69  C   UNL     1      54.897  35.232 -30.173  1.00  0.00     0.007 A 
ATOM     70  C   UNL     1      53.096  35.416 -31.766  1.00  0.00     0.007 A 
ATOM     71  C   UNL     1      54.891  33.839 -30.331  1.00  0.00     0.046 A 
ATOM     72  C   UNL     1      53.090  34.027 -31.925  1.00  0.00     0.046 A 
ATOM     73  C   UNL     1      53.983  33.248 -31.203  1.00  0.00     0.115 A 
BRANCH  73  74
ATOM     74  O   UNL     1      53.927  31.897 -31.372  1.00  0.00    -0.508 OA
ATOM     75  H   UNL     1      54.818  31.529 -31.262  1.00  0.00     0.293 HD
ENDBRANCH  73  74
ENDBRANCH  67  68
ENDBRANCH  66  67
BRANCH  66  76
ATOM     76  C   UNL     1      52.256  39.200 -29.690  1.00  0.00     0.243 C 
ATOM     77  O   UNL     1      51.080  39.042 -30.015  1.00  0.00    -0.273 OA
ATOM     78  N   UNL     1      52.765  40.454 -29.431  1.00  0.00    -0.345 N 
ATOM     79  H   UNL     1      53.648  40.517 -28.923  1.00  0.00     0.164 HD
BRANCH  78  80
ATOM     80  C   UNL     1      52.000  41.676 -29.587  1.00  0.00     0.216 C 
BRANCH  80  81
ATOM     81  C   UNL     1      52.453  42.450 -30.837  1.00  0.00     0.240 C 
ATOM     82  O   UNL     1      51.682  43.102 -31.543  1.00  0.00    -0.273 OA
ATOM     83  N   UNL     1      53.802  42.369 -31.110  1.00  0.00    -0.343 N 
ATOM     84  H   UNL     1      54.434  42.065 -30.377  1.00  0.00     0.164 HD
BRANCH  83  85
ATOM     85  C   UNL     1      54.392  43.039 -32.278  1.00  0.00     0.173 C 
BRANCH  85  86
ATOM     86  C   UNL     1      55.519  43.957 -31.762  1.00  0.00     0.240 C 
ATOM     87  N   UNL     1      55.527  44.155 -30.410  1.00  0.00    -0.368 N 
ATOM     88  O   UNL     1      56.410  44.422 -32.468  1.00  0.00    -0.273 OA
ATOM     89  H   UNL     1      55.035  43.497 -29.807  1.00  0.00     0.159 HD
ATOM     90  H   UNL     1      56.313  44.656 -30.022  1.00  0.00     0.159 HD
ENDBRANCH  85  86
BRANCH  85  91
ATOM     91  C   UNL     1      54.927  42.016 -33.307  1.00  0.00     0.015 C 
ATOM     92  C   UNL     1      55.638  40.848 -32.613  1.00  0.00     0.010 C 
ATOM     93  C   UNL     1      53.793  41.450 -34.175  1.00  0.00     0.010 C 
ENDBRANCH  85  91
ENDBRANCH  83  85
ENDBRANCH  80  81
ENDBRANCH  78  80
ENDBRANCH  66  76
ENDBRANCH  64  66
ENDBRANCH  55  62
ENDBRANCH  53  55
ENDBRANCH   1  51
TORSDOF 39
ENDMDL
MODEL 4
REMARK VINA RESULT:    -8.563      2.859     10.956
REMARK INTER + INTRA:         -33.966
REMARK INTER:                 -27.249
REMARK INTRA:                  -6.717
REMARK UNBOUND:                -6.632
REMARK SMILES C=C(N[C@H](CCCCNC(=O)C[C@@H](Sc1ccc2ccccc2c1)C(=O)O)C(=O)N[C@H](CCC(=O)O)C(=O)N[C@H](Cc1ccc(O)cc1)C(=O)NCC(=O)N[C@@H](C(N)=O)C(C)C)[C@@H](CCC)NC(=O)[C@@H](NC(=O)CNC)C(C)C
REMARK SMILES IDX 4 1 3 2 2 4 1 5 63 6 64 7 65 8 66 9 67 10 68 11 69 13 70 14
REMARK SMILES IDX 71 15 72 16 73 18 74 19 75 20 76 21 77 23 78 24 79 25 5 26
REMARK SMILES IDX 6 27 7 28 8 29 9 30 10 31 11 33 12 34 13 35 14 36 15 37
REMARK SMILES IDX 16 38 24 39 17 40 23 41 18 42 22 43 19 44 21 45 20 46 25 47
REMARK SMILES IDX 26 48 27 49 28 51 29 52 30 53 31 55 32 56 33 57 34 58 35 59
REMARK SMILES IDX 36 60 37 62 38 63 39 64 40 66 41 67 42 68 43 69 48 70 44 71
REMARK SMILES IDX 47 72 45 73 46 74 49 76 50 77 51 78 52 80 53 81 54 82 55 83
REMARK SMILES IDX 56 85 57 86 58 87 59 88 60 91 61 92 62 93
REMARK H PARENT 3 3 67 12 71 17 75 22 9 32 27 50 30 54 36 61 39 65 46 75 51 79
REMARK H PARENT 55 84 58 89 58 90
REMARK Flexibility Score: inf
ROOT
ATOM      1  C   UNL     1      57.164  34.980 -29.394  1.00  0.00     0.168 C 
ENDROOT
BRANCH   1   2
ATOM      2  N   UNL     1      56.112  34.693 -30.418  1.00  0.00    -0.376 N 
ATOM      3  H   UNL     1      56.531  34.716 -31.365  1.00  0.00     0.161 HD
BRANCH   2   4
ATOM      4  C   UNL     1      55.023  33.813 -30.452  1.00  0.00     0.027 C 
ATOM      5  C   UNL     1      55.164  32.476 -30.405  1.00  0.00     0.034 C 
BRANCH   4   6
ATOM      6  C   UNL     1      53.560  34.380 -30.407  1.00  0.00     0.128 C 
BRANCH   6   7
ATOM      7  C   UNL     1      52.677  33.649 -29.351  1.00  0.00     0.031 C 
BRANCH   7   8
ATOM      8  C   UNL     1      51.163  33.874 -29.540  1.00  0.00    -0.001 C 
ATOM      9  C   UNL     1      50.564  33.031 -30.662  1.00  0.00     0.004 C 
ENDBRANCH   7   8
ENDBRANCH   6   7
BRANCH   6  10
ATOM     10  N   UNL     1      53.370  35.842 -30.408  1.00  0.00    -0.346 N 
ATOM     11  C   UNL     1      53.251  36.783 -31.397  1.00  0.00     0.243 C 
ATOM     12  H   UNL     1      53.215  36.224 -29.475  1.00  0.00     0.164 HD
ATOM     13  O   UNL     1      53.190  36.513 -32.602  1.00  0.00    -0.273 OA
BRANCH  11  14
ATOM     14  C   UNL     1      53.140  38.272 -30.905  1.00  0.00     0.173 C 
BRANCH  14  15
ATOM     15  N   UNL     1      54.040  39.147 -31.670  1.00  0.00    -0.343 N 
ATOM     16  C   UNL     1      55.241  39.623 -31.208  1.00  0.00     0.234 C 
ATOM     17  H   UNL     1      53.718  39.542 -32.553  1.00  0.00     0.164 HD
ATOM     18  O   UNL     1      55.632  39.399 -30.054  1.00  0.00    -0.274 OA
BRANCH  16  19
ATOM     19  C   UNL     1      56.102  40.373 -32.227  1.00  0.00     0.181 C 
BRANCH  19  20
ATOM     20  N   UNL     1      56.146  41.817 -31.928  1.00  0.00    -0.311 NA
ATOM     21  C   UNL     1      57.444  42.159 -31.338  1.00  0.00     0.101 C 
ATOM     22  H   UNL     1      55.422  42.027 -31.239  1.00  0.00     0.122 HD
ENDBRANCH  19  20
ENDBRANCH  16  19
ENDBRANCH  14  15
BRANCH  14  23
ATOM     23  C   UNL     1      51.680  38.812 -30.796  1.00  0.00     0.015 C 
ATOM     24  C   UNL     1      50.817  37.927 -29.887  1.00  0.00     0.010 C 
ATOM     25  C   UNL     1      51.608  40.249 -30.250  1.00  0.00     0.010 C 
ENDBRANCH  14  23
ENDBRANCH  11  14
ENDBRANCH   6  10
ENDBRANCH   4   6
ENDBRANCH   2   4
ENDBRANCH   1   2
BRANCH   1  26
ATOM     26  C   UNL     1      57.345  36.455 -28.978  1.00  0.00     0.035 C 
BRANCH  26  27
ATOM     27  C   UNL     1      57.593  36.763 -27.496  1.00  0.00     0.004 C 
BRANCH  27  28
ATOM     28  C   UNL     1      59.031  37.167 -27.154  1.00  0.00     0.021 C 
BRANCH  28  29
ATOM     29  C   UNL     1      59.082  37.864 -25.794  1.00  0.00     0.116 C 
BRANCH  29  30
ATOM     30  N   UNL     1      58.352  37.140 -24.775  1.00  0.00    -0.356 N 
ATOM     31  C   UNL     1      58.965  36.775 -23.593  1.00  0.00     0.221 C 
ATOM     32  H   UNL     1      57.380  36.904 -24.931  1.00  0.00     0.163 HD
ATOM     33  O   UNL     1      60.152  36.972 -23.359  1.00  0.00    -0.275 OA
BRANCH  31  34
ATOM     34  C   UNL     1      58.046  36.071 -22.624  1.00  0.00     0.126 C 
BRANCH  34  35
ATOM     35  C   UNL     1      57.797  36.890 -21.359  1.00  0.00     0.170 C 
BRANCH  35  36
ATOM     36  S   UNL     1      56.026  37.375 -21.076  1.00  0.00    -0.110 SA
BRANCH  36  37
ATOM     37  C   UNL     1      55.448  37.779 -22.714  1.00  0.00     0.009 A 
ATOM     38  C   UNL     1      55.893  38.941 -23.349  1.00  0.00     0.016 A 
ATOM     39  C   UNL     1      54.675  36.862 -23.432  1.00  0.00     0.023 A 
ATOM     40  C   UNL     1      55.579  39.183 -24.689  1.00  0.00     0.010 A 
ATOM     41  C   UNL     1      54.356  37.086 -24.781  1.00  0.00    -0.017 A 
ATOM     42  C   UNL     1      54.832  38.255 -25.424  1.00  0.00    -0.018 A 
ATOM     43  C   UNL     1      53.600  36.163 -25.521  1.00  0.00     0.009 A 
ATOM     44  C   UNL     1      54.569  38.445 -26.789  1.00  0.00     0.009 A 
ATOM     45  C   UNL     1      53.348  36.371 -26.878  1.00  0.00     0.001 A 
ATOM     46  C   UNL     1      53.844  37.505 -27.513  1.00  0.00     0.001 A 
ENDBRANCH  36  37
ENDBRANCH  35  36
BRANCH  35  47
ATOM     47  C   UNL     1      58.372  36.184 -20.137  1.00  0.00     0.317 C 
ATOM     48  O   UNL     1      57.930  35.142 -19.674  1.00  0.00    -0.251 OA
BRANCH  47  49
ATOM     49  O   UNL     1      59.489  36.762 -19.631  1.00  0.00    -0.480 OA
ATOM     50  H   UNL     1      59.304  37.182 -18.764  1.00  0.00     0.296 HD
ENDBRANCH  47  49
ENDBRANCH  35  47
ENDBRANCH  34  35
ENDBRANCH  31  34
ENDBRANCH  29  30
ENDBRANCH  28  29
ENDBRANCH  27  28
ENDBRANCH  26  27
ENDBRANCH   1  26
BRANCH   1  51
ATOM     51  C   UNL     1      58.572  34.357 -29.694  1.00  0.00     0.243 C 
ATOM     52  O   UNL     1      59.554  35.071 -29.902  1.00  0.00    -0.273 OA
ATOM     53  N   UNL     1      58.640  32.996 -29.807  1.00  0.00    -0.343 N 
ATOM     54  H   UNL     1      57.807  32.555 -29.427  1.00  0.00     0.164 HD
BRANCH  53  55
ATOM     55  C   UNL     1      59.823  32.128 -29.908  1.00  0.00     0.172 C 
BRANCH  55  56
ATOM     56  C   UNL     1      60.103  31.602 -31.324  1.00  0.00     0.047 C 
BRANCH  56  57
ATOM     57  C   UNL     1      61.567  31.292 -31.588  1.00  0.00     0.125 C 
BRANCH  57  58
ATOM     58  C   UNL     1      61.767  29.820 -31.829  1.00  0.00     0.303 C 
ATOM     59  O   UNL     1      62.848  29.290 -31.952  1.00  0.00    -0.252 OA
BRANCH  58  60
ATOM     60  O   UNL     1      60.617  29.109 -31.910  1.00  0.00    -0.481 OA
ATOM     61  H   UNL     1      60.483  28.733 -32.796  1.00  0.00     0.296 HD
ENDBRANCH  58  60
ENDBRANCH  57  58
ENDBRANCH  56  57
ENDBRANCH  55  56
BRANCH  55  62
ATOM     62  C   UNL     1      60.060  30.934 -28.943  1.00  0.00     0.243 C 
ATOM     63  O   UNL     1      61.060  30.898 -28.222  1.00  0.00    -0.273 OA
ATOM     64  N   UNL     1      59.240  29.851 -29.059  1.00  0.00    -0.342 N 
ATOM     65  H   UNL     1      58.504  29.891 -29.764  1.00  0.00     0.164 HD
BRANCH  64  66
ATOM     66  C   UNL     1      59.544  28.534 -28.478  1.00  0.00     0.175 C 
BRANCH  66  67
ATOM     67  C   UNL     1      59.093  27.394 -29.421  1.00  0.00     0.070 C 
BRANCH  67  68
ATOM     68  C   UNL     1      57.907  26.563 -28.956  1.00  0.00    -0.045 A 
ATOM     69  C   UNL     1      58.071  25.442 -28.129  1.00  0.00     0.007 A 
ATOM     70  C   UNL     1      56.601  26.960 -29.289  1.00  0.00     0.007 A 
ATOM     71  C   UNL     1      56.959  24.738 -27.645  1.00  0.00     0.046 A 
ATOM     72  C   UNL     1      55.491  26.258 -28.808  1.00  0.00     0.046 A 
ATOM     73  C   UNL     1      55.678  25.157 -27.985  1.00  0.00     0.115 A 
BRANCH  73  74
ATOM     74  O   UNL     1      54.568  24.517 -27.521  1.00  0.00    -0.508 OA
ATOM     75  H   UNL     1      54.391  24.814 -26.614  1.00  0.00     0.293 HD
ENDBRANCH  73  74
ENDBRANCH  67  68
ENDBRANCH  66  67
BRANCH  66  76
ATOM     76  C   UNL     1      58.880  28.367 -27.076  1.00  0.00     0.243 C 
ATOM     77  O   UNL     1      59.428  27.789 -26.138  1.00  0.00    -0.273 OA
ATOM     78  N   UNL     1      57.693  29.047 -26.903  1.00  0.00    -0.345 N 
ATOM     79  H   UNL     1      57.414  29.714 -27.623  1.00  0.00     0.164 HD
BRANCH  78  80
ATOM     80  C   UNL     1      56.965  29.077 -25.650  1.00  0.00     0.216 C 
BRANCH  80  81
ATOM     81  C   UNL     1      55.448  29.153 -25.899  1.00  0.00     0.240 C 
ATOM     82  O   UNL     1      54.953  29.242 -27.023  1.00  0.00    -0.273 OA
ATOM     83  N   UNL     1      54.672  29.107 -24.760  1.00  0.00    -0.343 N 
ATOM     84  H   UNL     1      55.084  28.764 -23.900  1.00  0.00     0.164 HD
BRANCH  83  85
ATOM     85  C   UNL     1      53.206  29.186 -24.826  1.00  0.00     0.173 C 
BRANCH  85  86
ATOM     86  C   UNL     1      52.672  27.744 -24.950  1.00  0.00     0.240 C 
ATOM     87  N   UNL     1      53.564  26.842 -25.458  1.00  0.00    -0.368 N 
ATOM     88  O   UNL     1      51.569  27.378 -24.555  1.00  0.00    -0.273 OA
ATOM     89  H   UNL     1      54.559  27.060 -25.438  1.00  0.00     0.159 HD
ATOM     90  H   UNL     1      53.291  25.869 -25.450  1.00  0.00     0.159 HD
ENDBRANCH  85  86
BRANCH  85  91
ATOM     91  C   UNL     1      52.621  29.896 -23.583  1.00  0.00     0.015 C 
ATOM     92  C   UNL     1      53.717  30.613 -22.786  1.00  0.00     0.010 C 
ATOM     93  C   UNL     1      51.553  30.926 -23.978  1.00  0.00     0.010 C 
ENDBRANCH  85  91
ENDBRANCH  83  85
ENDBRANCH  80  81
ENDBRANCH  78  80
ENDBRANCH  66  76
ENDBRANCH  64  66
ENDBRANCH  55  62
ENDBRANCH  53  55
ENDBRANCH   1  51
TORSDOF 39
ENDMDL
MODEL 5
REMARK VINA RESULT:    -8.502      2.910      9.510
REMARK INTER + INTRA:         -33.772
REMARK INTER:                 -26.623
REMARK INTRA:                  -7.149
REMARK UNBOUND:                -6.632
REMARK SMILES C=C(N[C@H](CCCCNC(=O)C[C@@H](Sc1ccc2ccccc2c1)C(=O)O)C(=O)N[C@H](CCC(=O)O)C(=O)N[C@H](Cc1ccc(O)cc1)C(=O)NCC(=O)N[C@@H](C(N)=O)C(C)C)[C@@H](CCC)NC(=O)[C@@H](NC(=O)CNC)C(C)C
REMARK SMILES IDX 4 1 3 2 2 4 1 5 63 6 64 7 65 8 66 9 67 10 68 11 69 13 70 14
REMARK SMILES IDX 71 15 72 16 73 18 74 19 75 20 76 21 77 23 78 24 79 25 5 26
REMARK SMILES IDX 6 27 7 28 8 29 9 30 10 31 11 33 12 34 13 35 14 36 15 37
REMARK SMILES IDX 16 38 24 39 17 40 23 41 18 42 22 43 19 44 21 45 20 46 25 47
REMARK SMILES IDX 26 48 27 49 28 51 29 52 30 53 31 55 32 56 33 57 34 58 35 59
REMARK SMILES IDX 36 60 37 62 38 63 39 64 40 66 41 67 42 68 43 69 48 70 44 71
REMARK SMILES IDX 47 72 45 73 46 74 49 76 50 77 51 78 52 80 53 81 54 82 55 83
REMARK SMILES IDX 56 85 57 86 58 87 59 88 60 91 61 92 62 93
REMARK H PARENT 3 3 67 12 71 17 75 22 9 32 27 50 30 54 36 61 39 65 46 75 51 79
REMARK H PARENT 55 84 58 89 58 90
REMARK Flexibility Score: inf
ROOT
ATOM      1  C   UNL     1      58.698  35.248 -28.969  1.00  0.00     0.168 C 
ENDROOT
BRANCH   1   2
ATOM      2  N   UNL     1      59.881  36.121 -29.242  1.00  0.00    -0.376 N 
ATOM      3  H   UNL     1      60.717  35.533 -29.413  1.00  0.00     0.161 HD
BRANCH   2   4
ATOM      4  C   UNL     1      60.048  37.318 -29.950  1.00  0.00     0.027 C 
ATOM      5  C   UNL     1      59.831  37.418 -31.274  1.00  0.00     0.034 C 
BRANCH   4   6
ATOM      6  C   UNL     1      60.367  38.646 -29.175  1.00  0.00     0.128 C 
BRANCH   6   7
ATOM      7  C   UNL     1      61.766  38.604 -28.487  1.00  0.00     0.031 C 
BRANCH   7   8
ATOM      8  C   UNL     1      61.704  38.620 -26.947  1.00  0.00    -0.001 C 
ATOM      9  C   UNL     1      60.341  38.215 -26.394  1.00  0.00     0.004 C 
ENDBRANCH   7   8
ENDBRANCH   6   7
BRANCH   6  10
ATOM     10  N   UNL     1      60.085  39.932 -29.835  1.00  0.00    -0.346 N 
ATOM     11  C   UNL     1      60.126  41.240 -29.424  1.00  0.00     0.243 C 
ATOM     12  H   UNL     1      59.896  39.836 -30.833  1.00  0.00     0.164 HD
ATOM     13  O   UNL     1      60.542  41.601 -28.318  1.00  0.00    -0.273 OA
BRANCH  11  14
ATOM     14  C   UNL     1      59.652  42.298 -30.484  1.00  0.00     0.173 C 
BRANCH  14  15
ATOM     15  N   UNL     1      58.301  41.984 -30.973  1.00  0.00    -0.343 N 
ATOM     16  C   UNL     1      58.030  41.162 -32.037  1.00  0.00     0.234 C 
ATOM     17  H   UNL     1      57.504  42.495 -30.595  1.00  0.00     0.164 HD
ATOM     18  O   UNL     1      58.932  40.666 -32.726  1.00  0.00    -0.274 OA
BRANCH  16  19
ATOM     19  C   UNL     1      56.554  40.831 -32.270  1.00  0.00     0.181 C 
BRANCH  19  20
ATOM     20  N   UNL     1      55.879  40.485 -31.005  1.00  0.00    -0.311 NA
ATOM     21  C   UNL     1      56.469  39.264 -30.448  1.00  0.00     0.101 C 
ATOM     22  H   UNL     1      54.895  40.296 -31.205  1.00  0.00     0.122 HD
ENDBRANCH  19  20
ENDBRANCH  16  19
ENDBRANCH  14  15
BRANCH  14  23
ATOM     23  C   UNL     1      59.832  43.785 -30.044  1.00  0.00     0.015 C 
ATOM     24  C   UNL     1      60.087  44.702 -31.247  1.00  0.00     0.010 C 
ATOM     25  C   UNL     1      58.614  44.340 -29.286  1.00  0.00     0.010 C 
ENDBRANCH  14  23
ENDBRANCH  11  14
ENDBRANCH   6  10
ENDBRANCH   4   6
ENDBRANCH   2   4
ENDBRANCH   1   2
BRANCH   1  26
ATOM     26  C   UNL     1      58.414  34.124 -29.987  1.00  0.00     0.035 C 
BRANCH  26  27
ATOM     27  C   UNL     1      59.600  33.301 -30.505  1.00  0.00     0.004 C 
BRANCH  27  28
ATOM     28  C   UNL     1      59.422  31.783 -30.409  1.00  0.00     0.021 C 
BRANCH  28  29
ATOM     29  C   UNL     1      58.445  31.428 -29.287  1.00  0.00     0.116 C 
BRANCH  29  30
ATOM     30  N   UNL     1      57.953  30.071 -29.392  1.00  0.00    -0.356 N 
ATOM     31  C   UNL     1      56.617  29.822 -29.636  1.00  0.00     0.221 C 
ATOM     32  H   UNL     1      58.599  29.297 -29.291  1.00  0.00     0.163 HD
ATOM     33  O   UNL     1      55.769  30.702 -29.709  1.00  0.00    -0.275 OA
BRANCH  31  34
ATOM     34  C   UNL     1      56.287  28.353 -29.764  1.00  0.00     0.126 C 
BRANCH  34  35
ATOM     35  C   UNL     1      57.304  27.465 -29.050  1.00  0.00     0.170 C 
BRANCH  35  36
ATOM     36  S   UNL     1      56.570  26.209 -27.895  1.00  0.00    -0.110 SA
BRANCH  36  37
ATOM     37  C   UNL     1      55.606  27.203 -26.771  1.00  0.00     0.009 A 
ATOM     38  C   UNL     1      56.152  28.361 -26.214  1.00  0.00     0.016 A 
ATOM     39  C   UNL     1      54.253  26.918 -26.566  1.00  0.00     0.023 A 
ATOM     40  C   UNL     1      55.354  29.233 -25.466  1.00  0.00     0.010 A 
ATOM     41  C   UNL     1      53.437  27.786 -25.823  1.00  0.00    -0.017 A 
ATOM     42  C   UNL     1      53.992  28.971 -25.282  1.00  0.00    -0.018 A 
ATOM     43  C   UNL     1      52.071  27.524 -25.628  1.00  0.00     0.009 A 
ATOM     44  C   UNL     1      53.161  29.871 -24.598  1.00  0.00     0.009 A 
ATOM     45  C   UNL     1      51.261  28.432 -24.942  1.00  0.00     0.001 A 
ATOM     46  C   UNL     1      51.804  29.610 -24.439  1.00  0.00     0.001 A 
ENDBRANCH  36  37
ENDBRANCH  35  36
BRANCH  35  47
ATOM     47  C   UNL     1      58.241  26.803 -30.053  1.00  0.00     0.317 C 
ATOM     48  O   UNL     1      57.932  25.855 -30.761  1.00  0.00    -0.251 OA
BRANCH  47  49
ATOM     49  O   UNL     1      59.450  27.406 -30.170  1.00  0.00    -0.480 OA
ATOM     50  H   UNL     1      59.358  28.382 -30.139  1.00  0.00     0.296 HD
ENDBRANCH  47  49
ENDBRANCH  35  47
ENDBRANCH  34  35
ENDBRANCH  31  34
ENDBRANCH  29  30
ENDBRANCH  28  29
ENDBRANCH  27  28
ENDBRANCH  26  27
ENDBRANCH   1  26
BRANCH   1  51
ATOM     51  C   UNL     1      57.363  36.014 -28.667  1.00  0.00     0.243 C 
ATOM     52  O   UNL     1      56.425  36.001 -29.465  1.00  0.00    -0.273 OA
ATOM     53  N   UNL     1      57.322  36.769 -27.527  1.00  0.00    -0.343 N 
ATOM     54  H   UNL     1      58.082  36.525 -26.899  1.00  0.00     0.164 HD
BRANCH  53  55
ATOM     55  C   UNL     1      56.176  37.445 -26.899  1.00  0.00     0.172 C 
BRANCH  55  56
ATOM     56  C   UNL     1      56.159  37.368 -25.365  1.00  0.00     0.047 C 
BRANCH  56  57
ATOM     57  C   UNL     1      55.611  38.614 -24.691  1.00  0.00     0.125 C 
BRANCH  57  58
ATOM     58  C   UNL     1      56.392  38.935 -23.445  1.00  0.00     0.303 C 
ATOM     59  O   UNL     1      55.934  39.505 -22.481  1.00  0.00    -0.252 OA
BRANCH  58  60
ATOM     60  O   UNL     1      57.686  38.536 -23.483  1.00  0.00    -0.481 OA
ATOM     61  H   UNL     1      58.277  39.180 -23.057  1.00  0.00     0.296 HD
ENDBRANCH  58  60
ENDBRANCH  57  58
ENDBRANCH  56  57
ENDBRANCH  55  56
BRANCH  55  62
ATOM     62  C   UNL     1      54.714  37.204 -27.365  1.00  0.00     0.243 C 
ATOM     63  O   UNL     1      54.069  36.243 -26.937  1.00  0.00    -0.273 OA
ATOM     64  N   UNL     1      54.241  37.964 -28.392  1.00  0.00    -0.342 N 
ATOM     65  H   UNL     1      54.869  38.663 -28.789  1.00  0.00     0.164 HD
BRANCH  64  66
ATOM     66  C   UNL     1      53.033  37.629 -29.164  1.00  0.00     0.175 C 
BRANCH  66  67
ATOM     67  C   UNL     1      53.376  36.717 -30.364  1.00  0.00     0.070 C 
BRANCH  67  68
ATOM     68  C   UNL     1      52.634  35.392 -30.438  1.00  0.00    -0.045 A 
ATOM     69  C   UNL     1      51.708  35.009 -29.455  1.00  0.00     0.007 A 
ATOM     70  C   UNL     1      52.807  34.553 -31.552  1.00  0.00     0.007 A 
ATOM     71  C   UNL     1      50.974  33.821 -29.584  1.00  0.00     0.046 A 
ATOM     72  C   UNL     1      52.076  33.368 -31.681  1.00  0.00     0.046 A 
ATOM     73  C   UNL     1      51.162  33.013 -30.699  1.00  0.00     0.115 A 
BRANCH  73  74
ATOM     74  O   UNL     1      50.455  31.862 -30.877  1.00  0.00    -0.508 OA
ATOM     75  H   UNL     1      50.739  31.444 -31.706  1.00  0.00     0.293 HD
ENDBRANCH  73  74
ENDBRANCH  67  68
ENDBRANCH  66  67
BRANCH  66  76
ATOM     76  C   UNL     1      52.302  38.917 -29.658  1.00  0.00     0.243 C 
ATOM     77  O   UNL     1      51.161  38.908 -30.117  1.00  0.00    -0.273 OA
ATOM     78  N   UNL     1      52.963  40.100 -29.404  1.00  0.00    -0.345 N 
ATOM     79  H   UNL     1      53.781  40.072 -28.796  1.00  0.00     0.164 HD
BRANCH  78  80
ATOM     80  C   UNL     1      52.413  41.405 -29.719  1.00  0.00     0.216 C 
BRANCH  80  81
ATOM     81  C   UNL     1      53.026  41.959 -31.018  1.00  0.00     0.240 C 
ATOM     82  O   UNL     1      52.936  41.386 -32.104  1.00  0.00    -0.273 OA
ATOM     83  N   UNL     1      53.685  43.162 -30.878  1.00  0.00    -0.343 N 
ATOM     84  H   UNL     1      53.507  43.727 -30.055  1.00  0.00     0.164 HD
BRANCH  83  85
ATOM     85  C   UNL     1      54.340  43.817 -32.020  1.00  0.00     0.173 C 
BRANCH  85  86
ATOM     86  C   UNL     1      53.382  44.912 -32.535  1.00  0.00     0.240 C 
ATOM     87  N   UNL     1      53.426  45.127 -33.884  1.00  0.00    -0.368 N 
ATOM     88  O   UNL     1      52.568  45.504 -31.832  1.00  0.00    -0.273 OA
ATOM     89  H   UNL     1      53.814  44.406 -34.491  1.00  0.00     0.159 HD
ATOM     90  H   UNL     1      52.736  45.753 -34.273  1.00  0.00     0.159 HD
ENDBRANCH  85  86
BRANCH  85  91
ATOM     91  C   UNL     1      55.711  44.410 -31.623  1.00  0.00     0.015 C 
ATOM     92  C   UNL     1      56.624  44.568 -32.845  1.00  0.00     0.010 C 
ATOM     93  C   UNL     1      55.555  45.782 -30.952  1.00  0.00     0.010 C 
ENDBRANCH  85  91
ENDBRANCH  83  85
ENDBRANCH  80  81
ENDBRANCH  78  80
ENDBRANCH  66  76
ENDBRANCH  64  66
ENDBRANCH  55  62
ENDBRANCH  53  55
ENDBRANCH   1  51
TORSDOF 39
ENDMDL
MODEL 6
REMARK VINA RESULT:    -8.497      4.829      9.471
REMARK INTER + INTRA:         -33.756
REMARK INTER:                 -23.440
REMARK INTRA:                 -10.316
REMARK UNBOUND:                -6.632
REMARK SMILES C=C(N[C@H](CCCCNC(=O)C[C@@H](Sc1ccc2ccccc2c1)C(=O)O)C(=O)N[C@H](CCC(=O)O)C(=O)N[C@H](Cc1ccc(O)cc1)C(=O)NCC(=O)N[C@@H](C(N)=O)C(C)C)[C@@H](CCC)NC(=O)[C@@H](NC(=O)CNC)C(C)C
REMARK SMILES IDX 4 1 3 2 2 4 1 5 63 6 64 7 65 8 66 9 67 10 68 11 69 13 70 14
REMARK SMILES IDX 71 15 72 16 73 18 74 19 75 20 76 21 77 23 78 24 79 25 5 26
REMARK SMILES IDX 6 27 7 28 8 29 9 30 10 31 11 33 12 34 13 35 14 36 15 37
REMARK SMILES IDX 16 38 24 39 17 40 23 41 18 42 22 43 19 44 21 45 20 46 25 47
REMARK SMILES IDX 26 48 27 49 28 51 29 52 30 53 31 55 32 56 33 57 34 58 35 59
REMARK SMILES IDX 36 60 37 62 38 63 39 64 40 66 41 67 42 68 43 69 48 70 44 71
REMARK SMILES IDX 47 72 45 73 46 74 49 76 50 77 51 78 52 80 53 81 54 82 55 83
REMARK SMILES IDX 56 85 57 86 58 87 59 88 60 91 61 92 62 93
REMARK H PARENT 3 3 67 12 71 17 75 22 9 32 27 50 30 54 36 61 39 65 46 75 51 79
REMARK H PARENT 55 84 58 89 58 90
REMARK Flexibility Score: inf
ROOT
ATOM      1  C   UNL     1      61.842  38.579 -29.119  1.00  0.00     0.168 C 
ENDROOT
BRANCH   1   2
ATOM      2  N   UNL     1      61.562  37.379 -29.968  1.00  0.00    -0.376 N 
ATOM      3  H   UNL     1      60.551  37.337 -30.190  1.00  0.00     0.161 HD
BRANCH   2   4
ATOM      4  C   UNL     1      62.257  36.762 -31.015  1.00  0.00     0.027 C 
ATOM      5  C   UNL     1      63.418  36.106 -30.832  1.00  0.00     0.034 C 
BRANCH   4   6
ATOM      6  C   UNL     1      61.617  36.698 -32.447  1.00  0.00     0.128 C 
BRANCH   6   7
ATOM      7  C   UNL     1      60.452  35.665 -32.525  1.00  0.00     0.031 C 
BRANCH   7   8
ATOM      8  C   UNL     1      60.911  34.231 -32.857  1.00  0.00    -0.001 C 
ATOM      9  C   UNL     1      60.183  33.162 -32.049  1.00  0.00     0.004 C 
ENDBRANCH   7   8
ENDBRANCH   6   7
BRANCH   6  10
ATOM     10  N   UNL     1      61.317  37.962 -33.142  1.00  0.00    -0.346 N 
ATOM     11  C   UNL     1      60.389  38.953 -32.951  1.00  0.00     0.243 C 
ATOM     12  H   UNL     1      61.995  38.188 -33.870  1.00  0.00     0.164 HD
ATOM     13  O   UNL     1      59.610  38.992 -31.992  1.00  0.00    -0.273 OA
BRANCH  11  14
ATOM     14  C   UNL     1      60.399  40.105 -34.020  1.00  0.00     0.173 C 
BRANCH  14  15
ATOM     15  N   UNL     1      59.085  40.233 -34.667  1.00  0.00    -0.343 N 
ATOM     16  C   UNL     1      58.840  39.965 -35.990  1.00  0.00     0.234 C 
ATOM     17  H   UNL     1      58.319  40.668 -34.154  1.00  0.00     0.164 HD
ATOM     18  O   UNL     1      59.748  39.653 -36.773  1.00  0.00    -0.274 OA
BRANCH  16  19
ATOM     19  C   UNL     1      57.371  39.994 -36.419  1.00  0.00     0.181 C 
BRANCH  19  20
ATOM     20  N   UNL     1      57.227  40.497 -37.797  1.00  0.00    -0.311 NA
ATOM     21  C   UNL     1      56.669  39.444 -38.651  1.00  0.00     0.101 C 
ATOM     22  H   UNL     1      58.154  40.733 -38.154  1.00  0.00     0.122 HD
ENDBRANCH  19  20
ENDBRANCH  16  19
ENDBRANCH  14  15
BRANCH  14  23
ATOM     23  C   UNL     1      60.984  41.459 -33.510  1.00  0.00     0.015 C 
ATOM     24  C   UNL     1      62.186  41.907 -34.353  1.00  0.00     0.010 C 
ATOM     25  C   UNL     1      59.955  42.603 -33.523  1.00  0.00     0.010 C 
ENDBRANCH  14  23
ENDBRANCH  11  14
ENDBRANCH   6  10
ENDBRANCH   4   6
ENDBRANCH   2   4
ENDBRANCH   1   2
BRANCH   1  26
ATOM     26  C   UNL     1      62.322  38.314 -27.677  1.00  0.00     0.035 C 
BRANCH  26  27
ATOM     27  C   UNL     1      62.067  36.927 -27.074  1.00  0.00     0.004 C 
BRANCH  27  28
ATOM     28  C   UNL     1      60.655  36.715 -26.519  1.00  0.00     0.021 C 
BRANCH  28  29
ATOM     29  C   UNL     1      60.305  37.812 -25.513  1.00  0.00     0.116 C 
BRANCH  29  30
ATOM     30  N   UNL     1      58.973  37.657 -24.968  1.00  0.00    -0.356 N 
ATOM     31  C   UNL     1      58.774  37.010 -23.765  1.00  0.00     0.221 C 
ATOM     32  H   UNL     1      58.181  38.033 -25.474  1.00  0.00     0.163 HD
ATOM     33  O   UNL     1      59.675  36.477 -23.129  1.00  0.00    -0.275 OA
BRANCH  31  34
ATOM     34  C   UNL     1      57.330  36.981 -23.322  1.00  0.00     0.126 C 
BRANCH  34  35
ATOM     35  C   UNL     1      56.543  38.187 -23.831  1.00  0.00     0.170 C 
BRANCH  35  36
ATOM     36  S   UNL     1      54.789  37.825 -24.324  1.00  0.00    -0.110 SA
BRANCH  36  37
ATOM     37  C   UNL     1      54.946  37.263 -26.009  1.00  0.00     0.009 A 
ATOM     38  C   UNL     1      56.177  37.343 -26.663  1.00  0.00     0.016 A 
ATOM     39  C   UNL     1      53.886  36.595 -26.628  1.00  0.00     0.023 A 
ATOM     40  C   UNL     1      56.353  36.756 -27.920  1.00  0.00     0.010 A 
ATOM     41  C   UNL     1      54.047  35.995 -27.887  1.00  0.00    -0.017 A 
ATOM     42  C   UNL     1      55.305  36.060 -28.533  1.00  0.00    -0.018 A 
ATOM     43  C   UNL     1      52.997  35.302 -28.511  1.00  0.00     0.009 A 
ATOM     44  C   UNL     1      55.485  35.403 -29.760  1.00  0.00     0.009 A 
ATOM     45  C   UNL     1      53.195  34.655 -29.733  1.00  0.00     0.001 A 
ATOM     46  C   UNL     1      54.442  34.696 -30.349  1.00  0.00     0.001 A 
ENDBRANCH  36  37
ENDBRANCH  35  36
BRANCH  35  47
ATOM     47  C   UNL     1      56.604  39.333 -22.828  1.00  0.00     0.317 C 
ATOM     48  O   UNL     1      57.158  39.266 -21.740  1.00  0.00    -0.251 OA
BRANCH  47  49
ATOM     49  O   UNL     1      56.057  40.492 -23.271  1.00  0.00    -0.480 OA
ATOM     50  H   UNL     1      55.242  40.708 -22.770  1.00  0.00     0.296 HD
ENDBRANCH  47  49
ENDBRANCH  35  47
ENDBRANCH  34  35
ENDBRANCH  31  34
ENDBRANCH  29  30
ENDBRANCH  28  29
ENDBRANCH  27  28
ENDBRANCH  26  27
ENDBRANCH   1  26
BRANCH   1  51
ATOM     51  C   UNL     1      60.699  39.653 -29.089  1.00  0.00     0.243 C 
ATOM     52  O   UNL     1      59.595  39.395 -28.609  1.00  0.00    -0.273 OA
ATOM     53  N   UNL     1      60.953  40.850 -29.700  1.00  0.00    -0.343 N 
ATOM     54  H   UNL     1      61.947  40.971 -29.870  1.00  0.00     0.164 HD
BRANCH  53  55
ATOM     55  C   UNL     1      60.160  42.089 -29.684  1.00  0.00     0.172 C 
BRANCH  55  56
ATOM     56  C   UNL     1      60.143  42.813 -28.329  1.00  0.00     0.047 C 
BRANCH  56  57
ATOM     57  C   UNL     1      61.525  43.121 -27.778  1.00  0.00     0.125 C 
BRANCH  57  58
ATOM     58  C   UNL     1      61.906  44.550 -28.059  1.00  0.00     0.303 C 
ATOM     59  O   UNL     1      62.209  44.973 -29.152  1.00  0.00    -0.252 OA
BRANCH  58  60
ATOM     60  O   UNL     1      61.894  45.353 -26.968  1.00  0.00    -0.481 OA
ATOM     61  H   UNL     1      61.825  44.844 -26.143  1.00  0.00     0.296 HD
ENDBRANCH  58  60
ENDBRANCH  57  58
ENDBRANCH  56  57
ENDBRANCH  55  56
BRANCH  55  62
ATOM     62  C   UNL     1      58.707  42.150 -30.230  1.00  0.00     0.243 C 
ATOM     63  O   UNL     1      58.032  43.175 -30.105  1.00  0.00    -0.273 OA
ATOM     64  N   UNL     1      58.144  40.990 -30.670  1.00  0.00    -0.342 N 
ATOM     65  H   UNL     1      58.716  40.145 -30.633  1.00  0.00     0.164 HD
BRANCH  64  66
ATOM     66  C   UNL     1      56.699  40.814 -30.883  1.00  0.00     0.175 C 
BRANCH  66  67
ATOM     67  C   UNL     1      56.313  39.317 -30.871  1.00  0.00     0.070 C 
BRANCH  67  68
ATOM     68  C   UNL     1      54.832  39.003 -30.732  1.00  0.00    -0.045 A 
ATOM     69  C   UNL     1      54.138  38.275 -31.711  1.00  0.00     0.007 A 
ATOM     70  C   UNL     1      54.143  39.373 -29.565  1.00  0.00     0.007 A 
ATOM     71  C   UNL     1      52.793  37.925 -31.526  1.00  0.00     0.046 A 
ATOM     72  C   UNL     1      52.801  39.026 -29.380  1.00  0.00     0.046 A 
ATOM     73  C   UNL     1      52.138  38.300 -30.359  1.00  0.00     0.115 A 
BRANCH  73  74
ATOM     74  O   UNL     1      50.838  37.964 -30.126  1.00  0.00    -0.508 OA
ATOM     75  H   UNL     1      50.656  38.052 -29.177  1.00  0.00     0.293 HD
ENDBRANCH  73  74
ENDBRANCH  67  68
ENDBRANCH  66  67
BRANCH  66  76
ATOM     76  C   UNL     1      56.238  41.479 -32.218  1.00  0.00     0.243 C 
ATOM     77  O   UNL     1      56.186  40.872 -33.286  1.00  0.00    -0.273 OA
ATOM     78  N   UNL     1      55.743  42.759 -32.096  1.00  0.00    -0.345 N 
ATOM     79  H   UNL     1      55.571  43.120 -31.157  1.00  0.00     0.164 HD
BRANCH  78  80
ATOM     80  C   UNL     1      55.198  43.514 -33.208  1.00  0.00     0.216 C 
BRANCH  80  81
ATOM     81  C   UNL     1      53.663  43.584 -33.123  1.00  0.00     0.240 C 
ATOM     82  O   UNL     1      52.919  43.214 -34.032  1.00  0.00    -0.273 OA
ATOM     83  N   UNL     1      53.172  44.090 -31.937  1.00  0.00    -0.343 N 
ATOM     84  H   UNL     1      53.782  44.124 -31.128  1.00  0.00     0.164 HD
BRANCH  83  85
ATOM     85  C   UNL     1      51.728  44.238 -31.704  1.00  0.00     0.173 C 
BRANCH  85  86
ATOM     86  C   UNL     1      51.239  42.950 -31.011  1.00  0.00     0.240 C 
ATOM     87  N   UNL     1      52.020  42.522 -29.974  1.00  0.00    -0.368 N 
ATOM     88  O   UNL     1      50.189  42.374 -31.283  1.00  0.00    -0.273 OA
ATOM     89  H   UNL     1      52.658  43.178 -29.527  1.00  0.00     0.159 HD
ATOM     90  H   UNL     1      51.673  41.749 -29.425  1.00  0.00     0.159 HD
ENDBRANCH  85  86
BRANCH  85  91
ATOM     91  C   UNL     1      51.418  45.489 -30.850  1.00  0.00     0.015 C 
ATOM     92  C   UNL     1      52.463  46.588 -31.074  1.00  0.00     0.010 C 
ATOM     93  C   UNL     1      50.031  46.061 -31.177  1.00  0.00     0.010 C 
ENDBRANCH  85  91
ENDBRANCH  83  85
ENDBRANCH  80  81
ENDBRANCH  78  80
ENDBRANCH  66  76
ENDBRANCH  64  66
ENDBRANCH  55  62
ENDBRANCH  53  55
ENDBRANCH   1  51
TORSDOF 39
ENDMDL
MODEL 7
REMARK VINA RESULT:    -8.478      3.130      6.485
REMARK INTER + INTRA:         -33.695
REMARK INTER:                 -24.880
REMARK INTRA:                  -8.815
REMARK UNBOUND:                -6.632
REMARK SMILES C=C(N[C@H](CCCCNC(=O)C[C@@H](Sc1ccc2ccccc2c1)C(=O)O)C(=O)N[C@H](CCC(=O)O)C(=O)N[C@H](Cc1ccc(O)cc1)C(=O)NCC(=O)N[C@@H](C(N)=O)C(C)C)[C@@H](CCC)NC(=O)[C@@H](NC(=O)CNC)C(C)C
REMARK SMILES IDX 4 1 3 2 2 4 1 5 63 6 64 7 65 8 66 9 67 10 68 11 69 13 70 14
REMARK SMILES IDX 71 15 72 16 73 18 74 19 75 20 76 21 77 23 78 24 79 25 5 26
REMARK SMILES IDX 6 27 7 28 8 29 9 30 10 31 11 33 12 34 13 35 14 36 15 37
REMARK SMILES IDX 16 38 24 39 17 40 23 41 18 42 22 43 19 44 21 45 20 46 25 47
REMARK SMILES IDX 26 48 27 49 28 51 29 52 30 53 31 55 32 56 33 57 34 58 35 59
REMARK SMILES IDX 36 60 37 62 38 63 39 64 40 66 41 67 42 68 43 69 48 70 44 71
REMARK SMILES IDX 47 72 45 73 46 74 49 76 50 77 51 78 52 80 53 81 54 82 55 83
REMARK SMILES IDX 56 85 57 86 58 87 59 88 60 91 61 92 62 93
REMARK H PARENT 3 3 67 12 71 17 75 22 9 32 27 50 30 54 36 61 39 65 46 75 51 79
REMARK H PARENT 55 84 58 89 58 90
REMARK Flexibility Score: inf
ROOT
ATOM      1  C   UNL     1      61.032  35.163 -29.055  1.00  0.00     0.168 C 
ENDROOT
BRANCH   1   2
ATOM      2  N   UNL     1      60.655  33.760 -29.413  1.00  0.00    -0.376 N 
ATOM      3  H   UNL     1      60.812  33.138 -28.600  1.00  0.00     0.161 HD
BRANCH   2   4
ATOM      4  C   UNL     1      59.619  33.211 -30.179  1.00  0.00     0.027 C 
ATOM      5  C   UNL     1      58.360  33.682 -30.146  1.00  0.00     0.034 C 
BRANCH   4   6
ATOM      6  C   UNL     1      59.936  32.088 -31.229  1.00  0.00     0.128 C 
BRANCH   6   7
ATOM      7  C   UNL     1      61.331  32.282 -31.898  1.00  0.00     0.031 C 
BRANCH   7   8
ATOM      8  C   UNL     1      62.417  31.328 -31.362  1.00  0.00    -0.001 C 
ATOM      9  C   UNL     1      63.653  32.054 -30.838  1.00  0.00     0.004 C 
ENDBRANCH   7   8
ENDBRANCH   6   7
BRANCH   6  10
ATOM     10  N   UNL     1      59.658  30.686 -30.867  1.00  0.00    -0.346 N 
ATOM     11  C   UNL     1      59.700  29.984 -29.691  1.00  0.00     0.243 C 
ATOM     12  H   UNL     1      59.276  30.142 -31.641  1.00  0.00     0.164 HD
ATOM     13  O   UNL     1      59.925  30.497 -28.589  1.00  0.00    -0.273 OA
BRANCH  11  14
ATOM     14  C   UNL     1      59.388  28.448 -29.808  1.00  0.00     0.173 C 
BRANCH  14  15
ATOM     15  N   UNL     1      59.256  27.835 -28.477  1.00  0.00    -0.343 N 
ATOM     16  C   UNL     1      60.169  26.975 -27.923  1.00  0.00     0.234 C 
ATOM     17  H   UNL     1      58.380  27.941 -27.966  1.00  0.00     0.164 HD
ATOM     18  O   UNL     1      61.165  26.586 -28.549  1.00  0.00    -0.274 OA
BRANCH  16  19
ATOM     19  C   UNL     1      59.927  26.591 -26.461  1.00  0.00     0.181 C 
BRANCH  19  20
ATOM     20  N   UNL     1      59.698  25.141 -26.321  1.00  0.00    -0.311 NA
ATOM     21  C   UNL     1      58.608  24.725 -27.208  1.00  0.00     0.101 C 
ATOM     22  H   UNL     1      59.411  24.950 -25.359  1.00  0.00     0.122 HD
ENDBRANCH  19  20
ENDBRANCH  16  19
ENDBRANCH  14  15
BRANCH  14  23
ATOM     23  C   UNL     1      58.221  28.095 -30.782  1.00  0.00     0.015 C 
ATOM     24  C   UNL     1      58.294  26.633 -31.242  1.00  0.00     0.010 C 
ATOM     25  C   UNL     1      56.830  28.318 -30.162  1.00  0.00     0.010 C 
ENDBRANCH  14  23
ENDBRANCH  11  14
ENDBRANCH   6  10
ENDBRANCH   4   6
ENDBRANCH   2   4
ENDBRANCH   1   2
BRANCH   1  26
ATOM     26  C   UNL     1      60.203  35.844 -27.946  1.00  0.00     0.035 C 
BRANCH  26  27
ATOM     27  C   UNL     1      60.954  36.473 -26.766  1.00  0.00     0.004 C 
BRANCH  27  28
ATOM     28  C   UNL     1      60.662  37.959 -26.535  1.00  0.00     0.021 C 
BRANCH  28  29
ATOM     29  C   UNL     1      60.439  38.237 -25.047  1.00  0.00     0.116 C 
BRANCH  29  30
ATOM     30  N   UNL     1      59.093  37.916 -24.622  1.00  0.00    -0.356 N 
ATOM     31  C   UNL     1      58.872  37.006 -23.608  1.00  0.00     0.221 C 
ATOM     32  H   UNL     1      58.307  38.371 -25.070  1.00  0.00     0.163 HD
ATOM     33  O   UNL     1      59.768  36.373 -23.062  1.00  0.00    -0.275 OA
BRANCH  31  34
ATOM     34  C   UNL     1      57.413  36.828 -23.259  1.00  0.00     0.126 C 
BRANCH  34  35
ATOM     35  C   UNL     1      56.564  38.024 -23.687  1.00  0.00     0.170 C 
BRANCH  35  36
ATOM     36  S   UNL     1      54.814  37.613 -24.155  1.00  0.00    -0.110 SA
BRANCH  36  37
ATOM     37  C   UNL     1      54.943  37.190 -25.883  1.00  0.00     0.009 A 
ATOM     38  C   UNL     1      56.136  37.416 -26.573  1.00  0.00     0.016 A 
ATOM     39  C   UNL     1      53.911  36.489 -26.513  1.00  0.00     0.023 A 
ATOM     40  C   UNL     1      56.303  36.938 -27.876  1.00  0.00     0.010 A 
ATOM     41  C   UNL     1      54.065  35.997 -27.819  1.00  0.00    -0.017 A 
ATOM     42  C   UNL     1      55.287  36.209 -28.503  1.00  0.00    -0.018 A 
ATOM     43  C   UNL     1      53.046  35.271 -28.456  1.00  0.00     0.009 A 
ATOM     44  C   UNL     1      55.465  35.659 -29.782  1.00  0.00     0.009 A 
ATOM     45  C   UNL     1      53.241  34.734 -29.730  1.00  0.00     0.001 A 
ATOM     46  C   UNL     1      54.454  34.918 -30.386  1.00  0.00     0.001 A 
ENDBRANCH  36  37
ENDBRANCH  35  36
BRANCH  35  47
ATOM     47  C   UNL     1      56.604  39.120 -22.628  1.00  0.00     0.317 C 
ATOM     48  O   UNL     1      57.148  39.005 -21.539  1.00  0.00    -0.251 OA
BRANCH  47  49
ATOM     49  O   UNL     1      56.049  40.294 -23.019  1.00  0.00    -0.480 OA
ATOM     50  H   UNL     1      56.538  40.675 -23.780  1.00  0.00     0.296 HD
ENDBRANCH  47  49
ENDBRANCH  35  47
ENDBRANCH  34  35
ENDBRANCH  31  34
ENDBRANCH  29  30
ENDBRANCH  28  29
ENDBRANCH  27  28
ENDBRANCH  26  27
ENDBRANCH   1  26
BRANCH   1  51
ATOM     51  C   UNL     1      61.166  36.146 -30.269  1.00  0.00     0.243 C 
ATOM     52  O   UNL     1      61.686  35.786 -31.326  1.00  0.00    -0.273 OA
ATOM     53  N   UNL     1      60.768  37.440 -30.071  1.00  0.00    -0.343 N 
ATOM     54  H   UNL     1      60.200  37.524 -29.234  1.00  0.00     0.164 HD
BRANCH  53  55
ATOM     55  C   UNL     1      60.613  38.526 -31.051  1.00  0.00     0.172 C 
BRANCH  55  56
ATOM     56  C   UNL     1      61.557  39.718 -30.830  1.00  0.00     0.047 C 
BRANCH  56  57
ATOM     57  C   UNL     1      62.275  39.695 -29.492  1.00  0.00     0.125 C 
BRANCH  57  58
ATOM     58  C   UNL     1      61.763  40.786 -28.591  1.00  0.00     0.303 C 
ATOM     59  O   UNL     1      62.286  41.114 -27.550  1.00  0.00    -0.252 OA
BRANCH  58  60
ATOM     60  O   UNL     1      60.634  41.390 -29.036  1.00  0.00    -0.481 OA
ATOM     61  H   UNL     1      60.564  42.307 -28.721  1.00  0.00     0.296 HD
ENDBRANCH  58  60
ENDBRANCH  57  58
ENDBRANCH  56  57
ENDBRANCH  55  56
BRANCH  55  62
ATOM     62  C   UNL     1      59.227  39.128 -31.409  1.00  0.00     0.243 C 
ATOM     63  O   UNL     1      59.069  39.766 -32.453  1.00  0.00    -0.273 OA
ATOM     64  N   UNL     1      58.254  39.095 -30.454  1.00  0.00    -0.342 N 
ATOM     65  H   UNL     1      58.486  38.661 -29.561  1.00  0.00     0.164 HD
BRANCH  64  66
ATOM     66  C   UNL     1      57.032  39.914 -30.507  1.00  0.00     0.175 C 
BRANCH  66  67
ATOM     67  C   UNL     1      56.087  39.429 -31.631  1.00  0.00     0.070 C 
BRANCH  67  68
ATOM     68  C   UNL     1      54.674  39.058 -31.211  1.00  0.00    -0.045 A 
ATOM     69  C   UNL     1      53.823  38.323 -32.051  1.00  0.00     0.007 A 
ATOM     70  C   UNL     1      54.219  39.381 -29.921  1.00  0.00     0.007 A 
ATOM     71  C   UNL     1      52.554  37.921 -31.612  1.00  0.00     0.046 A 
ATOM     72  C   UNL     1      52.953  38.982 -29.483  1.00  0.00     0.046 A 
ATOM     73  C   UNL     1      52.132  38.250 -30.329  1.00  0.00     0.115 A 
BRANCH  73  74
ATOM     74  O   UNL     1      50.915  37.862 -29.853  1.00  0.00    -0.508 OA
ATOM     75  H   UNL     1      50.278  38.578 -30.000  1.00  0.00     0.293 HD
ENDBRANCH  73  74
ENDBRANCH  67  68
ENDBRANCH  66  67
BRANCH  66  76
ATOM     76  C   UNL     1      57.372  41.424 -30.703  1.00  0.00     0.243 C 
ATOM     77  O   UNL     1      58.046  42.070 -29.902  1.00  0.00    -0.273 OA
ATOM     78  N   UNL     1      56.995  41.959 -31.916  1.00  0.00    -0.345 N 
ATOM     79  H   UNL     1      56.670  41.319 -32.641  1.00  0.00     0.164 HD
BRANCH  78  80
ATOM     80  C   UNL     1      57.288  43.322 -32.315  1.00  0.00     0.216 C 
BRANCH  80  81
ATOM     81  C   UNL     1      56.035  44.006 -32.889  1.00  0.00     0.240 C 
ATOM     82  O   UNL     1      55.992  45.204 -33.176  1.00  0.00    -0.273 OA
ATOM     83  N   UNL     1      54.952  43.172 -33.070  1.00  0.00    -0.343 N 
ATOM     84  H   UNL     1      55.102  42.170 -33.086  1.00  0.00     0.164 HD
BRANCH  83  85
ATOM     85  C   UNL     1      53.674  43.675 -33.594  1.00  0.00     0.173 C 
BRANCH  85  86
ATOM     86  C   UNL     1      53.373  42.902 -34.894  1.00  0.00     0.240 C 
ATOM     87  N   UNL     1      52.563  43.558 -35.779  1.00  0.00    -0.368 N 
ATOM     88  O   UNL     1      53.872  41.819 -35.186  1.00  0.00    -0.273 OA
ATOM     89  H   UNL     1      52.457  44.568 -35.703  1.00  0.00     0.159 HD
ATOM     90  H   UNL     1      52.435  43.134 -36.687  1.00  0.00     0.159 HD
ENDBRANCH  85  86
BRANCH  85  91
ATOM     91  C   UNL     1      52.534  43.507 -32.563  1.00  0.00     0.015 C 
ATOM     92  C   UNL     1      52.686  42.201 -31.774  1.00  0.00     0.010 C 
ATOM     93  C   UNL     1      52.502  44.676 -31.568  1.00  0.00     0.010 C 
ENDBRANCH  85  91
ENDBRANCH  83  85
ENDBRANCH  80  81
ENDBRANCH  78  80
ENDBRANCH  66  76
ENDBRANCH  64  66
ENDBRANCH  55  62
ENDBRANCH  53  55
ENDBRANCH   1  51
TORSDOF 39
ENDMDL
MODEL 8
REMARK VINA RESULT:    -8.433      4.733      7.317
REMARK INTER + INTRA:         -33.553
REMARK INTER:                 -28.497
REMARK INTRA:                  -5.056
REMARK UNBOUND:                -6.632
REMARK SMILES C=C(N[C@H](CCCCNC(=O)C[C@@H](Sc1ccc2ccccc2c1)C(=O)O)C(=O)N[C@H](CCC(=O)O)C(=O)N[C@H](Cc1ccc(O)cc1)C(=O)NCC(=O)N[C@@H](C(N)=O)C(C)C)[C@@H](CCC)NC(=O)[C@@H](NC(=O)CNC)C(C)C
REMARK SMILES IDX 4 1 3 2 2 4 1 5 63 6 64 7 65 8 66 9 67 10 68 11 69 13 70 14
REMARK SMILES IDX 71 15 72 16 73 18 74 19 75 20 76 21 77 23 78 24 79 25 5 26
REMARK SMILES IDX 6 27 7 28 8 29 9 30 10 31 11 33 12 34 13 35 14 36 15 37
REMARK SMILES IDX 16 38 24 39 17 40 23 41 18 42 22 43 19 44 21 45 20 46 25 47
REMARK SMILES IDX 26 48 27 49 28 51 29 52 30 53 31 55 32 56 33 57 34 58 35 59
REMARK SMILES IDX 36 60 37 62 38 63 39 64 40 66 41 67 42 68 43 69 48 70 44 71
REMARK SMILES IDX 47 72 45 73 46 74 49 76 50 77 51 78 52 80 53 81 54 82 55 83
REMARK SMILES IDX 56 85 57 86 58 87 59 88 60 91 61 92 62 93
REMARK H PARENT 3 3 67 12 71 17 75 22 9 32 27 50 30 54 36 61 39 65 46 75 51 79
REMARK H PARENT 55 84 58 89 58 90
REMARK Flexibility Score: inf
ROOT
ATOM      1  C   UNL     1      56.008  37.237 -26.434  1.00  0.00     0.168 C 
ENDROOT
BRANCH   1   2
ATOM      2  N   UNL     1      56.881  36.650 -27.497  1.00  0.00    -0.376 N 
ATOM      3  H   UNL     1      56.300  36.353 -28.302  1.00  0.00     0.161 HD
BRANCH   2   4
ATOM      4  C   UNL     1      58.152  36.979 -27.985  1.00  0.00     0.027 C 
ATOM      5  C   UNL     1      59.121  37.493 -27.205  1.00  0.00     0.034 C 
BRANCH   4   6
ATOM      6  C   UNL     1      58.538  36.622 -29.464  1.00  0.00     0.128 C 
BRANCH   6   7
ATOM      7  C   UNL     1      59.271  37.796 -30.182  1.00  0.00     0.031 C 
BRANCH   7   8
ATOM      8  C   UNL     1      60.600  37.387 -30.847  1.00  0.00    -0.001 C 
ATOM      9  C   UNL     1      61.808  37.539 -29.928  1.00  0.00     0.004 C 
ENDBRANCH   7   8
ENDBRANCH   6   7
BRANCH   6  10
ATOM     10  N   UNL     1      59.147  35.308 -29.736  1.00  0.00    -0.346 N 
ATOM     11  C   UNL     1      58.638  34.057 -29.976  1.00  0.00     0.243 C 
ATOM     12  H   UNL     1      60.159  35.352 -29.848  1.00  0.00     0.164 HD
ATOM     13  O   UNL     1      57.432  33.817 -30.104  1.00  0.00    -0.273 OA
BRANCH  11  14
ATOM     14  C   UNL     1      59.703  32.913 -30.138  1.00  0.00     0.173 C 
BRANCH  14  15
ATOM     15  N   UNL     1      59.064  31.589 -30.086  1.00  0.00    -0.343 N 
ATOM     16  C   UNL     1      59.272  30.662 -29.097  1.00  0.00     0.234 C 
ATOM     17  H   UNL     1      58.526  31.266 -30.890  1.00  0.00     0.164 HD
ATOM     18  O   UNL     1      60.089  30.852 -28.186  1.00  0.00    -0.274 OA
BRANCH  16  19
ATOM     19  C   UNL     1      58.376  29.422 -29.141  1.00  0.00     0.181 C 
BRANCH  19  20
ATOM     20  N   UNL     1      56.967  29.788 -29.371  1.00  0.00    -0.311 NA
ATOM     21  C   UNL     1      56.130  29.225 -28.307  1.00  0.00     0.101 C 
ATOM     22  H   UNL     1      56.666  29.378 -30.257  1.00  0.00     0.122 HD
ENDBRANCH  19  20
ENDBRANCH  16  19
ENDBRANCH  14  15
BRANCH  14  23
ATOM     23  C   UNL     1      60.675  33.096 -31.344  1.00  0.00     0.015 C 
ATOM     24  C   UNL     1      61.513  31.834 -31.589  1.00  0.00     0.010 C 
ATOM     25  C   UNL     1      59.948  33.434 -32.658  1.00  0.00     0.010 C 
ENDBRANCH  14  23
ENDBRANCH  11  14
ENDBRANCH   6  10
ENDBRANCH   4   6
ENDBRANCH   2   4
ENDBRANCH   1   2
BRANCH   1  26
ATOM     26  C   UNL     1      56.521  37.144 -24.983  1.00  0.00     0.035 C 
BRANCH  26  27
ATOM     27  C   UNL     1      56.453  38.403 -24.109  1.00  0.00     0.004 C 
BRANCH  27  28
ATOM     28  C   UNL     1      57.095  38.263 -22.726  1.00  0.00     0.021 C 
BRANCH  28  29
ATOM     29  C   UNL     1      57.399  36.795 -22.422  1.00  0.00     0.116 C 
BRANCH  29  30
ATOM     30  N   UNL     1      58.717  36.610 -21.854  1.00  0.00    -0.356 N 
ATOM     31  C   UNL     1      58.886  35.916 -20.673  1.00  0.00     0.221 C 
ATOM     32  H   UNL     1      59.524  36.991 -22.333  1.00  0.00     0.163 HD
ATOM     33  O   UNL     1      57.954  35.480 -20.008  1.00  0.00    -0.275 OA
BRANCH  31  34
ATOM     34  C   UNL     1      60.329  35.776 -20.252  1.00  0.00     0.126 C 
BRANCH  34  35
ATOM     35  C   UNL     1      60.481  35.633 -18.739  1.00  0.00     0.170 C 
BRANCH  35  36
ATOM     36  S   UNL     1      61.665  34.309 -18.192  1.00  0.00    -0.110 SA
BRANCH  36  37
ATOM     37  C   UNL     1      60.835  33.573 -16.796  1.00  0.00     0.009 A 
ATOM     38  C   UNL     1      60.985  32.210 -16.529  1.00  0.00     0.016 A 
ATOM     39  C   UNL     1      60.162  34.379 -15.873  1.00  0.00     0.023 A 
ATOM     40  C   UNL     1      60.477  31.657 -15.350  1.00  0.00     0.010 A 
ATOM     41  C   UNL     1      59.651  33.841 -14.681  1.00  0.00    -0.017 A 
ATOM     42  C   UNL     1      59.829  32.463 -14.407  1.00  0.00    -0.018 A 
ATOM     43  C   UNL     1      58.993  34.643 -13.735  1.00  0.00     0.009 A 
ATOM     44  C   UNL     1      59.378  31.940 -13.186  1.00  0.00     0.009 A 
ATOM     45  C   UNL     1      58.550  34.104 -12.526  1.00  0.00     0.001 A 
ATOM     46  C   UNL     1      58.754  32.756 -12.248  1.00  0.00     0.001 A 
ENDBRANCH  36  37
ENDBRANCH  35  36
BRANCH  35  47
ATOM     47  C   UNL     1      60.829  36.973 -18.102  1.00  0.00     0.317 C 
ATOM     48  O   UNL     1      61.868  37.584 -18.310  1.00  0.00    -0.251 OA
BRANCH  47  49
ATOM     49  O   UNL     1      59.845  37.498 -17.331  1.00  0.00    -0.480 OA
ATOM     50  H   UNL     1      60.220  38.069 -16.627  1.00  0.00     0.296 HD
ENDBRANCH  47  49
ENDBRANCH  35  47
ENDBRANCH  34  35
ENDBRANCH  31  34
ENDBRANCH  29  30
ENDBRANCH  28  29
ENDBRANCH  27  28
ENDBRANCH  26  27
ENDBRANCH   1  26
BRANCH   1  51
ATOM     51  C   UNL     1      54.509  36.779 -26.478  1.00  0.00     0.243 C 
ATOM     52  O   UNL     1      53.799  36.824 -25.472  1.00  0.00    -0.273 OA
ATOM     53  N   UNL     1      54.054  36.243 -27.651  1.00  0.00    -0.343 N 
ATOM     54  H   UNL     1      54.687  36.450 -28.418  1.00  0.00     0.164 HD
BRANCH  53  55
ATOM     55  C   UNL     1      52.681  35.893 -28.044  1.00  0.00     0.172 C 
BRANCH  55  56
ATOM     56  C   UNL     1      52.521  34.461 -28.579  1.00  0.00     0.047 C 
BRANCH  56  57
ATOM     57  C   UNL     1      53.415  34.143 -29.764  1.00  0.00     0.125 C 
BRANCH  57  58
ATOM     58  C   UNL     1      52.599  33.659 -30.934  1.00  0.00     0.303 C 
ATOM     59  O   UNL     1      52.427  32.493 -31.210  1.00  0.00    -0.252 OA
BRANCH  58  60
ATOM     60  O   UNL     1      52.062  34.651 -31.684  1.00  0.00    -0.481 OA
ATOM     61  H   UNL     1      51.436  35.193 -31.176  1.00  0.00     0.296 HD
ENDBRANCH  58  60
ENDBRANCH  57  58
ENDBRANCH  56  57
ENDBRANCH  55  56
BRANCH  55  62
ATOM     62  C   UNL     1      51.826  36.802 -28.969  1.00  0.00     0.243 C 
ATOM     63  O   UNL     1      50.812  36.363 -29.519  1.00  0.00    -0.273 OA
ATOM     64  N   UNL     1      52.331  38.023 -29.302  1.00  0.00    -0.342 N 
ATOM     65  H   UNL     1      53.237  38.280 -28.912  1.00  0.00     0.164 HD
BRANCH  64  66
ATOM     66  C   UNL     1      51.824  38.837 -30.419  1.00  0.00     0.175 C 
BRANCH  66  67
ATOM     67  C   UNL     1      52.627  38.568 -31.712  1.00  0.00     0.070 C 
BRANCH  67  68
ATOM     68  C   UNL     1      54.038  39.134 -31.760  1.00  0.00    -0.045 A 
ATOM     69  C   UNL     1      54.431  40.055 -32.743  1.00  0.00     0.007 A 
ATOM     70  C   UNL     1      54.962  38.798 -30.755  1.00  0.00     0.007 A 
ATOM     71  C   UNL     1      55.710  40.627 -32.721  1.00  0.00     0.046 A 
ATOM     72  C   UNL     1      56.239  39.367 -30.733  1.00  0.00     0.046 A 
ATOM     73  C   UNL     1      56.602  40.281 -31.712  1.00  0.00     0.115 A 
BRANCH  73  74
ATOM     74  O   UNL     1      57.848  40.827 -31.638  1.00  0.00    -0.508 OA
ATOM     75  H   UNL     1      57.854  41.663 -32.131  1.00  0.00     0.293 HD
ENDBRANCH  73  74
ENDBRANCH  67  68
ENDBRANCH  66  67
BRANCH  66  76
ATOM     76  C   UNL     1      51.857  40.358 -30.071  1.00  0.00     0.243 C 
ATOM     77  O   UNL     1      52.355  40.800 -29.037  1.00  0.00    -0.273 OA
ATOM     78  N   UNL     1      51.424  41.200 -31.073  1.00  0.00    -0.345 N 
ATOM     79  H   UNL     1      51.263  40.800 -31.998  1.00  0.00     0.164 HD
BRANCH  78  80
ATOM     80  C   UNL     1      51.449  42.646 -30.969  1.00  0.00     0.216 C 
BRANCH  80  81
ATOM     81  C   UNL     1      52.770  43.212 -31.520  1.00  0.00     0.240 C 
ATOM     82  O   UNL     1      53.864  43.005 -30.995  1.00  0.00    -0.273 OA
ATOM     83  N   UNL     1      52.640  43.971 -32.664  1.00  0.00    -0.343 N 
ATOM     84  H   UNL     1      51.789  43.894 -33.211  1.00  0.00     0.164 HD
BRANCH  83  85
ATOM     85  C   UNL     1      53.804  44.598 -33.307  1.00  0.00     0.173 C 
BRANCH  85  86
ATOM     86  C   UNL     1      53.831  44.124 -34.775  1.00  0.00     0.240 C 
ATOM     87  N   UNL     1      52.757  43.368 -35.155  1.00  0.00    -0.368 N 
ATOM     88  O   UNL     1      54.687  44.451 -35.592  1.00  0.00    -0.273 OA
ATOM     89  H   UNL     1      51.900  43.408 -34.605  1.00  0.00     0.159 HD
ATOM     90  H   UNL     1      52.682  43.135 -36.135  1.00  0.00     0.159 HD
ENDBRANCH  85  86
BRANCH  85  91
ATOM     91  C   UNL     1      53.740  46.140 -33.215  1.00  0.00     0.015 C 
ATOM     92  C   UNL     1      52.732  46.592 -32.151  1.00  0.00     0.010 C 
ATOM     93  C   UNL     1      55.112  46.738 -32.872  1.00  0.00     0.010 C 
ENDBRANCH  85  91
ENDBRANCH  83  85
ENDBRANCH  80  81
ENDBRANCH  78  80
ENDBRANCH  66  76
ENDBRANCH  64  66
ENDBRANCH  55  62
ENDBRANCH  53  55
ENDBRANCH   1  51
TORSDOF 39
ENDMDL
MODEL 9
REMARK VINA RESULT:    -8.429      3.060      9.375
REMARK INTER + INTRA:         -33.539
REMARK INTER:                 -25.602
REMARK INTRA:                  -7.937
REMARK UNBOUND:                -6.632
REMARK SMILES C=C(N[C@H](CCCCNC(=O)C[C@@H](Sc1ccc2ccccc2c1)C(=O)O)C(=O)N[C@H](CCC(=O)O)C(=O)N[C@H](Cc1ccc(O)cc1)C(=O)NCC(=O)N[C@@H](C(N)=O)C(C)C)[C@@H](CCC)NC(=O)[C@@H](NC(=O)CNC)C(C)C
REMARK SMILES IDX 4 1 3 2 2 4 1 5 63 6 64 7 65 8 66 9 67 10 68 11 69 13 70 14
REMARK SMILES IDX 71 15 72 16 73 18 74 19 75 20 76 21 77 23 78 24 79 25 5 26
REMARK SMILES IDX 6 27 7 28 8 29 9 30 10 31 11 33 12 34 13 35 14 36 15 37
REMARK SMILES IDX 16 38 24 39 17 40 23 41 18 42 22 43 19 44 21 45 20 46 25 47
REMARK SMILES IDX 26 48 27 49 28 51 29 52 30 53 31 55 32 56 33 57 34 58 35 59
REMARK SMILES IDX 36 60 37 62 38 63 39 64 40 66 41 67 42 68 43 69 48 70 44 71
REMARK SMILES IDX 47 72 45 73 46 74 49 76 50 77 51 78 52 80 53 81 54 82 55 83
REMARK SMILES IDX 56 85 57 86 58 87 59 88 60 91 61 92 62 93
REMARK H PARENT 3 3 67 12 71 17 75 22 9 32 27 50 30 54 36 61 39 65 46 75 51 79
REMARK H PARENT 55 84 58 89 58 90
REMARK Flexibility Score: inf
ROOT
ATOM      1  C   UNL     1      58.777  36.473 -27.909  1.00  0.00     0.168 C 
ENDROOT
BRANCH   1   2
ATOM      2  N   UNL     1      59.971  36.923 -27.129  1.00  0.00    -0.376 N 
ATOM      3  H   UNL     1      60.718  36.209 -27.191  1.00  0.00     0.161 HD
BRANCH   2   4
ATOM      4  C   UNL     1      60.584  38.170 -26.947  1.00  0.00     0.027 C 
ATOM      5  C   UNL     1      60.884  38.664 -25.732  1.00  0.00     0.034 C 
BRANCH   4   6
ATOM      6  C   UNL     1      61.076  38.987 -28.193  1.00  0.00     0.128 C 
BRANCH   6   7
ATOM      7  C   UNL     1      62.020  38.151 -29.111  1.00  0.00     0.031 C 
BRANCH   7   8
ATOM      8  C   UNL     1      63.430  38.754 -29.267  1.00  0.00    -0.001 C 
ATOM      9  C   UNL     1      63.779  39.765 -28.179  1.00  0.00     0.004 C 
ENDBRANCH   7   8
ENDBRANCH   6   7
BRANCH   6  10
ATOM     10  N   UNL     1      60.091  39.782 -28.948  1.00  0.00    -0.346 N 
ATOM     11  C   UNL     1      60.136  40.998 -29.579  1.00  0.00     0.243 C 
ATOM     12  H   UNL     1      59.212  39.287 -29.102  1.00  0.00     0.164 HD
ATOM     13  O   UNL     1      61.165  41.671 -29.707  1.00  0.00    -0.273 OA
BRANCH  11  14
ATOM     14  C   UNL     1      58.778  41.489 -30.201  1.00  0.00     0.173 C 
BRANCH  14  15
ATOM     15  N   UNL     1      58.922  42.831 -30.785  1.00  0.00    -0.343 N 
ATOM     16  C   UNL     1      58.250  43.945 -30.351  1.00  0.00     0.234 C 
ATOM     17  H   UNL     1      59.453  42.943 -31.648  1.00  0.00     0.164 HD
ATOM     18  O   UNL     1      57.396  43.885 -29.455  1.00  0.00    -0.274 OA
BRANCH  16  19
ATOM     19  C   UNL     1      58.675  45.273 -30.981  1.00  0.00     0.181 C 
BRANCH  19  20
ATOM     20  N   UNL     1      57.661  46.320 -30.758  1.00  0.00    -0.311 NA
ATOM     21  C   UNL     1      57.549  47.162 -31.953  1.00  0.00     0.101 C 
ATOM     22  H   UNL     1      57.970  46.911 -29.984  1.00  0.00     0.122 HD
ENDBRANCH  19  20
ENDBRANCH  16  19
ENDBRANCH  14  15
BRANCH  14  23
ATOM     23  C   UNL     1      58.089  40.460 -31.150  1.00  0.00     0.015 C 
ATOM     24  C   UNL     1      56.559  40.543 -31.056  1.00  0.00     0.010 C 
ATOM     25  C   UNL     1      58.474  40.651 -32.627  1.00  0.00     0.010 C 
ENDBRANCH  14  23
ENDBRANCH  11  14
ENDBRANCH   6  10
ENDBRANCH   4   6
ENDBRANCH   2   4
ENDBRANCH   1   2
BRANCH   1  26
ATOM     26  C   UNL     1      59.018  36.070 -29.378  1.00  0.00     0.035 C 
BRANCH  26  27
ATOM     27  C   UNL     1      60.100  35.023 -29.672  1.00  0.00     0.004 C 
BRANCH  27  28
ATOM     28  C   UNL     1      59.775  33.607 -29.185  1.00  0.00     0.021 C 
BRANCH  28  29
ATOM     29  C   UNL     1      59.004  32.835 -30.256  1.00  0.00     0.116 C 
BRANCH  29  30
ATOM     30  N   UNL     1      59.060  31.403 -30.052  1.00  0.00    -0.356 N 
ATOM     31  C   UNL     1      59.768  30.594 -30.918  1.00  0.00     0.221 C 
ATOM     32  H   UNL     1      58.579  30.993 -29.261  1.00  0.00     0.163 HD
ATOM     33  O   UNL     1      60.324  31.010 -31.928  1.00  0.00    -0.275 OA
BRANCH  31  34
ATOM     34  C   UNL     1      59.761  29.134 -30.528  1.00  0.00     0.126 C 
BRANCH  34  35
ATOM     35  C   UNL     1      59.718  28.938 -29.015  1.00  0.00     0.170 C 
BRANCH  35  36
ATOM     36  S   UNL     1      58.984  27.326 -28.455  1.00  0.00    -0.110 SA
BRANCH  36  37
ATOM     37  C   UNL     1      57.702  27.833 -27.324  1.00  0.00     0.009 A 
ATOM     38  C   UNL     1      57.830  29.024 -26.606  1.00  0.00     0.016 A 
ATOM     39  C   UNL     1      56.497  27.127 -27.267  1.00  0.00     0.023 A 
ATOM     40  C   UNL     1      56.764  29.512 -25.845  1.00  0.00     0.010 A 
ATOM     41  C   UNL     1      55.414  27.607 -26.513  1.00  0.00    -0.017 A 
ATOM     42  C   UNL     1      55.543  28.828 -25.808  1.00  0.00    -0.018 A 
ATOM     43  C   UNL     1      54.189  26.921 -26.465  1.00  0.00     0.009 A 
ATOM     44  C   UNL     1      54.440  29.342 -25.110  1.00  0.00     0.009 A 
ATOM     45  C   UNL     1      53.103  27.447 -25.764  1.00  0.00     0.001 A 
ATOM     46  C   UNL     1      53.226  28.662 -25.098  1.00  0.00     0.001 A 
ENDBRANCH  36  37
ENDBRANCH  35  36
BRANCH  35  47
ATOM     47  C   UNL     1      61.098  29.151 -28.403  1.00  0.00     0.317 C 
ATOM     48  O   UNL     1      62.028  28.365 -28.513  1.00  0.00    -0.251 OA
BRANCH  47  49
ATOM     49  O   UNL     1      61.255  30.346 -27.781  1.00  0.00    -0.480 OA
ATOM     50  H   UNL     1      61.743  30.976 -28.352  1.00  0.00     0.296 HD
ENDBRANCH  47  49
ENDBRANCH  35  47
ENDBRANCH  34  35
ENDBRANCH  31  34
ENDBRANCH  29  30
ENDBRANCH  28  29
ENDBRANCH  27  28
ENDBRANCH  26  27
ENDBRANCH   1  26
BRANCH   1  51
ATOM     51  C   UNL     1      57.537  37.430 -27.838  1.00  0.00     0.243 C 
ATOM     52  O   UNL     1      57.284  38.214 -28.753  1.00  0.00    -0.273 OA
ATOM     53  N   UNL     1      56.809  37.422 -26.680  1.00  0.00    -0.343 N 
ATOM     54  H   UNL     1      57.026  36.606 -26.117  1.00  0.00     0.164 HD
BRANCH  53  55
ATOM     55  C   UNL     1      55.519  38.067 -26.387  1.00  0.00     0.172 C 
BRANCH  55  56
ATOM     56  C   UNL     1      55.088  37.979 -24.915  1.00  0.00     0.047 C 
BRANCH  56  57
ATOM     57  C   UNL     1      56.198  37.550 -23.972  1.00  0.00     0.125 C 
BRANCH  57  58
ATOM     58  C   UNL     1      55.666  37.343 -22.579  1.00  0.00     0.303 C 
ATOM     59  O   UNL     1      55.012  36.384 -22.234  1.00  0.00    -0.252 OA
BRANCH  58  60
ATOM     60  O   UNL     1      55.971  38.339 -21.713  1.00  0.00    -0.481 OA
ATOM     61  H   UNL     1      56.065  38.013 -20.803  1.00  0.00     0.296 HD
ENDBRANCH  58  60
ENDBRANCH  57  58
ENDBRANCH  56  57
ENDBRANCH  55  56
BRANCH  55  62
ATOM     62  C   UNL     1      54.246  37.794 -27.233  1.00  0.00     0.243 C 
ATOM     63  O   UNL     1      53.543  36.805 -27.008  1.00  0.00    -0.273 OA
ATOM     64  N   UNL     1      54.039  38.564 -28.338  1.00  0.00    -0.342 N 
ATOM     65  H   UNL     1      54.726  39.290 -28.541  1.00  0.00     0.164 HD
BRANCH  64  66
ATOM     66  C   UNL     1      53.095  38.212 -29.411  1.00  0.00     0.175 C 
BRANCH  66  67
ATOM     67  C   UNL     1      53.846  37.761 -30.685  1.00  0.00     0.070 C 
BRANCH  67  68
ATOM     68  C   UNL     1      53.844  36.269 -30.977  1.00  0.00    -0.045 A 
ATOM     69  C   UNL     1      54.612  35.369 -30.222  1.00  0.00     0.007 A 
ATOM     70  C   UNL     1      52.997  35.751 -31.971  1.00  0.00     0.007 A 
ATOM     71  C   UNL     1      54.532  33.988 -30.454  1.00  0.00     0.046 A 
ATOM     72  C   UNL     1      52.919  34.374 -32.204  1.00  0.00     0.046 A 
ATOM     73  C   UNL     1      53.682  33.503 -31.441  1.00  0.00     0.115 A 
BRANCH  73  74
ATOM     74  O   UNL     1      53.557  32.168 -31.686  1.00  0.00    -0.508 OA
ATOM     75  H   UNL     1      54.133  31.931 -32.430  1.00  0.00     0.293 HD
ENDBRANCH  73  74
ENDBRANCH  67  68
ENDBRANCH  66  67
BRANCH  66  76
ATOM     76  C   UNL     1      52.143  39.404 -29.740  1.00  0.00     0.243 C 
ATOM     77  O   UNL     1      51.006  39.253 -30.183  1.00  0.00    -0.273 OA
ATOM     78  N   UNL     1      52.603  40.646 -29.356  1.00  0.00    -0.345 N 
ATOM     79  H   UNL     1      53.434  40.688 -28.766  1.00  0.00     0.164 HD
BRANCH  78  80
ATOM     80  C   UNL     1      51.833  41.865 -29.507  1.00  0.00     0.216 C 
BRANCH  80  81
ATOM     81  C   UNL     1      52.133  42.540 -30.857  1.00  0.00     0.240 C 
ATOM     82  O   UNL     1      51.299  43.192 -31.486  1.00  0.00    -0.273 OA
ATOM     83  N   UNL     1      53.422  42.367 -31.316  1.00  0.00    -0.343 N 
ATOM     84  H   UNL     1      54.139  42.071 -30.663  1.00  0.00     0.164 HD
BRANCH  83  85
ATOM     85  C   UNL     1      53.865  42.934 -32.598  1.00  0.00     0.173 C 
BRANCH  85  86
ATOM     86  C   UNL     1      55.075  43.845 -32.306  1.00  0.00     0.240 C 
ATOM     87  N   UNL     1      54.927  44.669 -31.226  1.00  0.00    -0.368 N 
ATOM     88  O   UNL     1      56.138  43.800 -32.918  1.00  0.00    -0.273 OA
ATOM     89  H   UNL     1      54.222  44.450 -30.523  1.00  0.00     0.159 HD
ATOM     90  H   UNL     1      55.738  45.198 -30.935  1.00  0.00     0.159 HD
ENDBRANCH  85  86
BRANCH  85  91
ATOM     91  C   UNL     1      54.227  41.825 -33.612  1.00  0.00     0.015 C 
ATOM     92  C   UNL     1      53.577  40.490 -33.232  1.00  0.00     0.010 C 
ATOM     93  C   UNL     1      53.780  42.198 -35.033  1.00  0.00     0.010 C 
ENDBRANCH  85  91
ENDBRANCH  83  85
ENDBRANCH  80  81
ENDBRANCH  78  80
ENDBRANCH  66  76
ENDBRANCH  64  66
ENDBRANCH  55  62
ENDBRANCH  53  55
ENDBRANCH   1  51
TORSDOF 39
ENDMDL
