MODEL 1
REMARK VINA RESULT:    -7.946      0.000      0.000
REMARK INTER + INTRA:         -16.261
REMARK INTER:                 -14.681
REMARK INTRA:                  -1.580
REMARK UNBOUND:                -1.580
REMARK SMILES O=C(O)CC(=S)NCCCC[C@@H](NC(=O)OCc1ccccc1)C(=O)Nc1ccccc1
REMARK SMILES IDX 9 1 8 2 7 3 5 5 6 6 4 7 2 8 1 9 3 10 10 12 11 13 12 14 13 15
REMARK SMILES IDX 14 16 15 18 16 19 17 20 18 21 19 22 23 23 20 24 22 25 21 26
REMARK SMILES IDX 24 27 25 28 26 29 27 31 28 32 32 33 29 34 31 35 30 36
REMARK H PARENT 7 4 3 11 13 17 26 30
REMARK Flexibility Score: inf
ROOT
ATOM      1  C   UNL     1      14.596  17.507  -1.854  1.00  0.00     0.021 C 
ENDROOT
BRANCH   1   2
ATOM      2  C   UNL     1      14.075  18.064  -0.540  1.00  0.00     0.113 C 
BRANCH   2   3
ATOM      3  N   UNL     1      12.647  18.246  -0.473  1.00  0.00    -0.379 N 
ATOM      4  H   UNL     1      12.135  17.519   0.017  1.00  0.00     0.161 HD
BRANCH   3   5
ATOM      5  C   UNL     1      11.911  18.862  -1.451  1.00  0.00     0.087 C 
ATOM      6  S   UNL     1      10.749  17.956  -2.241  1.00  0.00    -0.065 S 
BRANCH   5   7
ATOM      7  C   UNL     1      12.312  20.259  -1.860  1.00  0.00     0.188 C 
BRANCH   7   8
ATOM      8  C   UNL     1      12.261  21.324  -0.807  1.00  0.00     0.310 C 
ATOM      9  O   UNL     1      12.639  22.481  -0.916  1.00  0.00    -0.252 OA
BRANCH   8  10
ATOM     10  O   UNL     1      11.617  20.886   0.304  1.00  0.00    -0.481 OA
ATOM     11  H   UNL     1      12.149  20.263   0.841  1.00  0.00     0.296 HD
ENDBRANCH   8  10
ENDBRANCH   7   8
ENDBRANCH   5   7
ENDBRANCH   3   5
ENDBRANCH   2   3
ENDBRANCH   1   2
BRANCH   1  12
ATOM     12  C   UNL     1      14.202  16.040  -2.083  1.00  0.00     0.004 C 
BRANCH  12  13
ATOM     13  C   UNL     1      15.320  15.108  -2.561  1.00  0.00     0.035 C 
BRANCH  13  14
ATOM     14  C   UNL     1      15.038  14.201  -3.784  1.00  0.00     0.175 C 
BRANCH  14  15
ATOM     15  N   UNL     1      14.002  13.199  -3.500  1.00  0.00    -0.310 N 
ATOM     16  C   UNL     1      14.278  12.006  -2.876  1.00  0.00     0.408 C 
ATOM     17  H   UNL     1      13.031  13.480  -3.504  1.00  0.00     0.167 HD
ATOM     18  O   UNL     1      15.396  11.530  -2.762  1.00  0.00    -0.225 OA
BRANCH  16  19
ATOM     19  O   UNL     1      13.141  11.466  -2.362  1.00  0.00    -0.445 OA
BRANCH  19  20
ATOM     20  C   UNL     1      13.310  10.561  -1.248  1.00  0.00     0.270 C 
BRANCH  20  21
ATOM     21  C   UNL     1      12.624   9.215  -1.420  1.00  0.00    -0.011 A 
ATOM     22  C   UNL     1      13.307   8.093  -1.913  1.00  0.00     0.007 A 
ATOM     23  C   UNL     1      11.304   9.038  -0.963  1.00  0.00     0.007 A 
ATOM     24  C   UNL     1      12.690   6.834  -1.945  1.00  0.00     0.000 A 
ATOM     25  C   UNL     1      10.682   7.787  -1.013  1.00  0.00     0.000 A 
ATOM     26  C   UNL     1      11.380   6.680  -1.490  1.00  0.00     0.000 A 
ENDBRANCH  20  21
ENDBRANCH  19  20
ENDBRANCH  16  19
ENDBRANCH  14  15
BRANCH  14  27
ATOM     27  C   UNL     1      14.894  15.091  -5.027  1.00  0.00     0.247 C 
ATOM     28  O   UNL     1      13.814  15.184  -5.613  1.00  0.00    -0.272 OA
ATOM     29  N   UNL     1      15.991  15.890  -5.297  1.00  0.00    -0.324 N 
ATOM     30  H   UNL     1      16.885  15.448  -5.124  1.00  0.00     0.170 HD
BRANCH  29  31
ATOM     31  C   UNL     1      15.896  16.815  -6.353  1.00  0.00     0.041 A 
ATOM     32  C   UNL     1      16.278  16.451  -7.650  1.00  0.00     0.026 A 
ATOM     33  C   UNL     1      15.515  18.122  -6.071  1.00  0.00     0.026 A 
ATOM     34  C   UNL     1      16.336  17.412  -8.656  1.00  0.00     0.002 A 
ATOM     35  C   UNL     1      15.616  19.091  -7.069  1.00  0.00     0.002 A 
ATOM     36  C   UNL     1      16.028  18.738  -8.357  1.00  0.00     0.000 A 
ENDBRANCH  29  31
ENDBRANCH  14  27
ENDBRANCH  13  14
ENDBRANCH  12  13
ENDBRANCH   1  12
TORSDOF 15
ENDMDL
MODEL 2
REMARK VINA RESULT:    -7.697      1.732      2.134
REMARK INTER + INTRA:         -15.800
REMARK INTER:                 -14.273
REMARK INTRA:                  -1.528
REMARK UNBOUND:                -1.580
REMARK SMILES O=C(O)CC(=S)NCCCC[C@@H](NC(=O)OCc1ccccc1)C(=O)Nc1ccccc1
REMARK SMILES IDX 9 1 8 2 7 3 5 5 6 6 4 7 2 8 1 9 3 10 10 12 11 13 12 14 13 15
REMARK SMILES IDX 14 16 15 18 16 19 17 20 18 21 19 22 23 23 20 24 22 25 21 26
REMARK SMILES IDX 24 27 25 28 26 29 27 31 28 32 32 33 29 34 31 35 30 36
REMARK H PARENT 7 4 3 11 13 17 26 30
REMARK Flexibility Score: inf
ROOT
ATOM      1  C   UNL     1      15.032  16.975  -1.598  1.00  0.00     0.021 C 
ENDROOT
BRANCH   1   2
ATOM      2  C   UNL     1      14.417  18.357  -1.750  1.00  0.00     0.113 C 
BRANCH   2   3
ATOM      3  N   UNL     1      13.575  18.779  -0.660  1.00  0.00    -0.379 N 
ATOM      4  H   UNL     1      13.623  18.207   0.178  1.00  0.00     0.161 HD
BRANCH   3   5
ATOM      5  C   UNL     1      12.360  19.390  -0.828  1.00  0.00     0.087 C 
ATOM      6  S   UNL     1      12.342  21.051  -1.021  1.00  0.00    -0.065 S 
BRANCH   5   7
ATOM      7  C   UNL     1      11.118  18.547  -0.660  1.00  0.00     0.188 C 
BRANCH   7   8
ATOM      8  C   UNL     1      11.299  17.153  -0.141  1.00  0.00     0.310 C 
ATOM      9  O   UNL     1      11.655  16.831   0.982  1.00  0.00    -0.252 OA
BRANCH   8  10
ATOM     10  O   UNL     1      10.903  16.234  -1.056  1.00  0.00    -0.481 OA
ATOM     11  H   UNL     1      11.597  16.011  -1.710  1.00  0.00     0.296 HD
ENDBRANCH   8  10
ENDBRANCH   7   8
ENDBRANCH   5   7
ENDBRANCH   3   5
ENDBRANCH   2   3
ENDBRANCH   1   2
BRANCH   1  12
ATOM     12  C   UNL     1      14.376  15.924  -2.506  1.00  0.00     0.004 C 
BRANCH  12  13
ATOM     13  C   UNL     1      15.244  14.716  -2.876  1.00  0.00     0.035 C 
BRANCH  13  14
ATOM     14  C   UNL     1      15.015  14.049  -4.253  1.00  0.00     0.175 C 
BRANCH  14  15
ATOM     15  N   UNL     1      13.953  13.035  -4.205  1.00  0.00    -0.310 N 
ATOM     16  C   UNL     1      14.150  11.738  -4.617  1.00  0.00     0.408 C 
ATOM     17  H   UNL     1      13.148  13.193  -3.614  1.00  0.00     0.167 HD
ATOM     18  O   UNL     1      15.082  11.370  -5.312  1.00  0.00    -0.225 OA
BRANCH  16  19
ATOM     19  O   UNL     1      13.193  10.925  -4.093  1.00  0.00    -0.445 OA
BRANCH  19  20
ATOM     20  C   UNL     1      13.165  10.815  -2.653  1.00  0.00     0.270 C 
BRANCH  20  21
ATOM     21  C   UNL     1      12.621   9.495  -2.132  1.00  0.00    -0.011 A 
ATOM     22  C   UNL     1      13.273   8.277  -2.374  1.00  0.00     0.007 A 
ATOM     23  C   UNL     1      11.500   9.488  -1.279  1.00  0.00     0.007 A 
ATOM     24  C   UNL     1      12.821   7.090  -1.779  1.00  0.00     0.000 A 
ATOM     25  C   UNL     1      11.038   8.301  -0.702  1.00  0.00     0.000 A 
ATOM     26  C   UNL     1      11.707   7.103  -0.939  1.00  0.00     0.000 A 
ENDBRANCH  20  21
ENDBRANCH  19  20
ENDBRANCH  16  19
ENDBRANCH  14  15
BRANCH  14  27
ATOM     27  C   UNL     1      14.946  15.150  -5.322  1.00  0.00     0.247 C 
ATOM     28  O   UNL     1      13.863  15.505  -5.791  1.00  0.00    -0.272 OA
ATOM     29  N   UNL     1      16.142  15.806  -5.554  1.00  0.00    -0.324 N 
ATOM     30  H   UNL     1      16.959  15.210  -5.530  1.00  0.00     0.170 HD
BRANCH  29  31
ATOM     31  C   UNL     1      16.138  16.902  -6.437  1.00  0.00     0.041 A 
ATOM     32  C   UNL     1      15.782  18.178  -5.980  1.00  0.00     0.026 A 
ATOM     33  C   UNL     1      16.392  16.682  -7.786  1.00  0.00     0.026 A 
ATOM     34  C   UNL     1      15.623  19.223  -6.885  1.00  0.00     0.002 A 
ATOM     35  C   UNL     1      16.189  17.720  -8.695  1.00  0.00     0.002 A 
ATOM     36  C   UNL     1      15.802  18.985  -8.247  1.00  0.00     0.000 A 
ENDBRANCH  29  31
ENDBRANCH  14  27
ENDBRANCH  13  14
ENDBRANCH  12  13
ENDBRANCH   1  12
TORSDOF 15
ENDMDL
MODEL 3
REMARK VINA RESULT:    -7.450      1.548      1.956
REMARK INTER + INTRA:         -15.346
REMARK INTER:                 -13.705
REMARK INTRA:                  -1.641
REMARK UNBOUND:                -1.580
REMARK SMILES O=C(O)CC(=S)NCCCC[C@@H](NC(=O)OCc1ccccc1)C(=O)Nc1ccccc1
REMARK SMILES IDX 9 1 8 2 7 3 5 5 6 6 4 7 2 8 1 9 3 10 10 12 11 13 12 14 13 15
REMARK SMILES IDX 14 16 15 18 16 19 17 20 18 21 19 22 23 23 20 24 22 25 21 26
REMARK SMILES IDX 24 27 25 28 26 29 27 31 28 32 32 33 29 34 31 35 30 36
REMARK H PARENT 7 4 3 11 13 17 26 30
REMARK Flexibility Score: inf
ROOT
ATOM      1  C   UNL     1      14.181  17.788  -2.239  1.00  0.00     0.021 C 
ENDROOT
BRANCH   1   2
ATOM      2  C   UNL     1      14.610  18.539  -0.990  1.00  0.00     0.113 C 
BRANCH   2   3
ATOM      3  N   UNL     1      14.472  19.972  -1.055  1.00  0.00    -0.379 N 
ATOM      4  H   UNL     1      15.025  20.496  -0.383  1.00  0.00     0.161 HD
BRANCH   3   5
ATOM      5  C   UNL     1      13.316  20.610  -1.421  1.00  0.00     0.087 C 
ATOM      6  S   UNL     1      11.948  20.338  -0.500  1.00  0.00    -0.065 S 
BRANCH   5   7
ATOM      7  C   UNL     1      13.318  21.378  -2.721  1.00  0.00     0.188 C 
BRANCH   7   8
ATOM      8  C   UNL     1      14.645  21.828  -3.252  1.00  0.00     0.310 C 
ATOM      9  O   UNL     1      15.528  22.398  -2.628  1.00  0.00    -0.252 OA
BRANCH   8  10
ATOM     10  O   UNL     1      14.826  21.420  -4.532  1.00  0.00    -0.481 OA
ATOM     11  H   UNL     1      13.988  21.327  -5.033  1.00  0.00     0.296 HD
ENDBRANCH   8  10
ENDBRANCH   7   8
ENDBRANCH   5   7
ENDBRANCH   3   5
ENDBRANCH   2   3
ENDBRANCH   1   2
BRANCH   1  12
ATOM     12  C   UNL     1      14.157  16.265  -2.045  1.00  0.00     0.004 C 
BRANCH  12  13
ATOM     13  C   UNL     1      15.381  15.500  -2.561  1.00  0.00     0.035 C 
BRANCH  13  14
ATOM     14  C   UNL     1      15.180  14.514  -3.737  1.00  0.00     0.175 C 
BRANCH  14  15
ATOM     15  N   UNL     1      14.124  13.531  -3.459  1.00  0.00    -0.310 N 
ATOM     16  C   UNL     1      14.387  12.296  -2.917  1.00  0.00     0.408 C 
ATOM     17  H   UNL     1      13.164  13.844  -3.399  1.00  0.00     0.167 HD
ATOM     18  O   UNL     1      15.491  11.779  -2.884  1.00  0.00    -0.225 OA
BRANCH  16  19
ATOM     19  O   UNL     1      13.256  11.765  -2.378  1.00  0.00    -0.445 OA
BRANCH  19  20
ATOM     20  C   UNL     1      12.569  10.779  -3.180  1.00  0.00     0.270 C 
BRANCH  20  21
ATOM     21  C   UNL     1      11.981   9.621  -2.388  1.00  0.00    -0.011 A 
ATOM     22  C   UNL     1      12.789   8.733  -1.664  1.00  0.00     0.007 A 
ATOM     23  C   UNL     1      10.584   9.495  -2.266  1.00  0.00     0.007 A 
ATOM     24  C   UNL     1      12.218   7.751  -0.841  1.00  0.00     0.000 A 
ATOM     25  C   UNL     1      10.015   8.503  -1.461  1.00  0.00     0.000 A 
ATOM     26  C   UNL     1      10.832   7.640  -0.736  1.00  0.00     0.000 A 
ENDBRANCH  20  21
ENDBRANCH  19  20
ENDBRANCH  16  19
ENDBRANCH  14  15
BRANCH  14  27
ATOM     27  C   UNL     1      15.124  15.320  -5.043  1.00  0.00     0.247 C 
ATOM     28  O   UNL     1      14.150  15.234  -5.794  1.00  0.00    -0.272 OA
ATOM     29  N   UNL     1      16.137  16.250  -5.193  1.00  0.00    -0.324 N 
ATOM     30  H   UNL     1      17.041  15.945  -4.855  1.00  0.00     0.170 HD
BRANCH  29  31
ATOM     31  C   UNL     1      16.094  17.105  -6.309  1.00  0.00     0.041 A 
ATOM     32  C   UNL     1      15.566  18.398  -6.191  1.00  0.00     0.026 A 
ATOM     33  C   UNL     1      16.486  16.615  -7.550  1.00  0.00     0.026 A 
ATOM     34  C   UNL     1      15.376  19.180  -7.327  1.00  0.00     0.002 A 
ATOM     35  C   UNL     1      16.254  17.384  -8.690  1.00  0.00     0.002 A 
ATOM     36  C   UNL     1      15.698  18.661  -8.579  1.00  0.00     0.000 A 
ENDBRANCH  29  31
ENDBRANCH  14  27
ENDBRANCH  13  14
ENDBRANCH  12  13
ENDBRANCH   1  12
TORSDOF 15
ENDMDL
MODEL 4
REMARK VINA RESULT:    -7.443      2.946      8.827
REMARK INTER + INTRA:         -15.332
REMARK INTER:                 -13.258
REMARK INTRA:                  -2.074
REMARK UNBOUND:                -1.580
REMARK SMILES O=C(O)CC(=S)NCCCC[C@@H](NC(=O)OCc1ccccc1)C(=O)Nc1ccccc1
REMARK SMILES IDX 9 1 8 2 7 3 5 5 6 6 4 7 2 8 1 9 3 10 10 12 11 13 12 14 13 15
REMARK SMILES IDX 14 16 15 18 16 19 17 20 18 21 19 22 23 23 20 24 22 25 21 26
REMARK SMILES IDX 24 27 25 28 26 29 27 31 28 32 32 33 29 34 31 35 30 36
REMARK H PARENT 7 4 3 11 13 17 26 30
REMARK Flexibility Score: inf
ROOT
ATOM      1  C   UNL     1      15.322  17.546  -5.114  1.00  0.00     0.021 C 
ENDROOT
BRANCH   1   2
ATOM      2  C   UNL     1      14.424  16.800  -6.087  1.00  0.00     0.113 C 
BRANCH   2   3
ATOM      3  N   UNL     1      14.142  17.493  -7.319  1.00  0.00    -0.379 N 
ATOM      4  H   UNL     1      13.559  18.321  -7.232  1.00  0.00     0.161 HD
BRANCH   3   5
ATOM      5  C   UNL     1      14.020  16.870  -8.533  1.00  0.00     0.087 C 
ATOM      6  S   UNL     1      12.515  16.280  -8.961  1.00  0.00    -0.065 S 
BRANCH   5   7
ATOM      7  C   UNL     1      15.282  16.611  -9.321  1.00  0.00     0.188 C 
BRANCH   7   8
ATOM      8  C   UNL     1      16.071  17.806  -9.764  1.00  0.00     0.310 C 
ATOM      9  O   UNL     1      16.216  18.203 -10.911  1.00  0.00    -0.252 OA
BRANCH   8  10
ATOM     10  O   UNL     1      16.543  18.504  -8.702  1.00  0.00    -0.481 OA
ATOM     11  H   UNL     1      15.866  19.069  -8.275  1.00  0.00     0.296 HD
ENDBRANCH   8  10
ENDBRANCH   7   8
ENDBRANCH   5   7
ENDBRANCH   3   5
ENDBRANCH   2   3
ENDBRANCH   1   2
BRANCH   1  12
ATOM     12  C   UNL     1      14.593  17.974  -3.832  1.00  0.00     0.004 C 
BRANCH  12  13
ATOM     13  C   UNL     1      15.063  17.305  -2.535  1.00  0.00     0.035 C 
BRANCH  13  14
ATOM     14  C   UNL     1      14.019  16.528  -1.697  1.00  0.00     0.175 C 
BRANCH  14  15
ATOM     15  N   UNL     1      12.906  17.386  -1.269  1.00  0.00    -0.310 N 
ATOM     16  C   UNL     1      12.940  18.115  -0.104  1.00  0.00     0.408 C 
ATOM     17  H   UNL     1      12.217  17.675  -1.950  1.00  0.00     0.167 HD
ATOM     18  O   UNL     1      13.722  17.916   0.811  1.00  0.00    -0.225 OA
BRANCH  16  19
ATOM     19  O   UNL     1      12.019  19.116  -0.144  1.00  0.00    -0.445 OA
BRANCH  19  20
ATOM     20  C   UNL     1      11.659  19.600  -1.457  1.00  0.00     0.270 C 
BRANCH  20  21
ATOM     21  C   UNL     1      12.389  20.863  -1.885  1.00  0.00    -0.011 A 
ATOM     22  C   UNL     1      12.734  21.103  -3.223  1.00  0.00     0.007 A 
ATOM     23  C   UNL     1      12.625  21.887  -0.946  1.00  0.00     0.007 A 
ATOM     24  C   UNL     1      13.294  22.329  -3.611  1.00  0.00     0.000 A 
ATOM     25  C   UNL     1      13.202  23.101  -1.330  1.00  0.00     0.000 A 
ATOM     26  C   UNL     1      13.523  23.329  -2.666  1.00  0.00     0.000 A 
ENDBRANCH  20  21
ENDBRANCH  19  20
ENDBRANCH  16  19
ENDBRANCH  14  15
BRANCH  14  27
ATOM     27  C   UNL     1      13.708  15.206  -2.413  1.00  0.00     0.247 C 
ATOM     28  O   UNL     1      12.572  14.966  -2.828  1.00  0.00    -0.272 OA
ATOM     29  N   UNL     1      14.816  14.430  -2.704  1.00  0.00    -0.324 N 
ATOM     30  H   UNL     1      15.529  14.432  -1.987  1.00  0.00     0.170 HD
BRANCH  29  31
ATOM     31  C   UNL     1      14.628  13.258  -3.458  1.00  0.00     0.041 A 
ATOM     32  C   UNL     1      14.269  12.060  -2.826  1.00  0.00     0.026 A 
ATOM     33  C   UNL     1      14.901  13.281  -4.821  1.00  0.00     0.026 A 
ATOM     34  C   UNL     1      14.242  10.871  -3.549  1.00  0.00     0.002 A 
ATOM     35  C   UNL     1      14.916  12.082  -5.532  1.00  0.00     0.002 A 
ATOM     36  C   UNL     1      14.590  10.880  -4.899  1.00  0.00     0.000 A 
ENDBRANCH  29  31
ENDBRANCH  14  27
ENDBRANCH  13  14
ENDBRANCH  12  13
ENDBRANCH   1  12
TORSDOF 15
ENDMDL
MODEL 5
REMARK VINA RESULT:    -7.442      1.501      1.995
REMARK INTER + INTRA:         -15.330
REMARK INTER:                 -13.444
REMARK INTRA:                  -1.886
REMARK UNBOUND:                -1.580
REMARK SMILES O=C(O)CC(=S)NCCCC[C@@H](NC(=O)OCc1ccccc1)C(=O)Nc1ccccc1
REMARK SMILES IDX 9 1 8 2 7 3 5 5 6 6 4 7 2 8 1 9 3 10 10 12 11 13 12 14 13 15
REMARK SMILES IDX 14 16 15 18 16 19 17 20 18 21 19 22 23 23 20 24 22 25 21 26
REMARK SMILES IDX 24 27 25 28 26 29 27 31 28 32 32 33 29 34 31 35 30 36
REMARK H PARENT 7 4 3 11 13 17 26 30
REMARK Flexibility Score: inf
ROOT
ATOM      1  C   UNL     1      14.416  17.673  -2.612  1.00  0.00     0.021 C 
ENDROOT
BRANCH   1   2
ATOM      2  C   UNL     1      13.175  18.146  -3.350  1.00  0.00     0.113 C 
BRANCH   2   3
ATOM      3  N   UNL     1      12.096  18.602  -2.512  1.00  0.00    -0.379 N 
ATOM      4  H   UNL     1      12.370  18.963  -1.603  1.00  0.00     0.161 HD
BRANCH   3   5
ATOM      5  C   UNL     1      10.841  18.052  -2.520  1.00  0.00     0.087 C 
ATOM      6  S   UNL     1       9.898  18.277  -3.882  1.00  0.00    -0.065 S 
BRANCH   5   7
ATOM      7  C   UNL     1      10.337  17.429  -1.240  1.00  0.00     0.188 C 
BRANCH   7   8
ATOM      8  C   UNL     1      11.316  17.285  -0.114  1.00  0.00     0.310 C 
ATOM      9  O   UNL     1      11.765  16.242   0.336  1.00  0.00    -0.252 OA
BRANCH   8  10
ATOM     10  O   UNL     1      11.763  18.495   0.305  1.00  0.00    -0.481 OA
ATOM     11  H   UNL     1      11.142  18.951   0.909  1.00  0.00     0.296 HD
ENDBRANCH   8  10
ENDBRANCH   7   8
ENDBRANCH   5   7
ENDBRANCH   3   5
ENDBRANCH   2   3
ENDBRANCH   1   2
BRANCH   1  12
ATOM     12  C   UNL     1      14.325  16.207  -2.165  1.00  0.00     0.004 C 
BRANCH  12  13
ATOM     13  C   UNL     1      15.456  15.286  -2.639  1.00  0.00     0.035 C 
BRANCH  13  14
ATOM     14  C   UNL     1      15.168  14.330  -3.821  1.00  0.00     0.175 C 
BRANCH  14  15
ATOM     15  N   UNL     1      14.119  13.354  -3.499  1.00  0.00    -0.310 N 
ATOM     16  C   UNL     1      14.378  12.185  -2.824  1.00  0.00     0.408 C 
ATOM     17  H   UNL     1      13.151  13.647  -3.517  1.00  0.00     0.167 HD
ATOM     18  O   UNL     1      15.489  11.700  -2.686  1.00  0.00    -0.225 OA
BRANCH  16  19
ATOM     19  O   UNL     1      13.232  11.681  -2.291  1.00  0.00    -0.445 OA
BRANCH  19  20
ATOM     20  C   UNL     1      12.586  10.629  -3.042  1.00  0.00     0.270 C 
BRANCH  20  21
ATOM     21  C   UNL     1      12.066   9.479  -2.195  1.00  0.00    -0.011 A 
ATOM     22  C   UNL     1      10.703   9.333  -1.898  1.00  0.00     0.007 A 
ATOM     23  C   UNL     1      12.945   8.454  -1.791  1.00  0.00     0.007 A 
ATOM     24  C   UNL     1      10.233   8.198  -1.222  1.00  0.00     0.000 A 
ATOM     25  C   UNL     1      12.478   7.332  -1.099  1.00  0.00     0.000 A 
ATOM     26  C   UNL     1      11.119   7.196  -0.827  1.00  0.00     0.000 A 
ENDBRANCH  20  21
ENDBRANCH  19  20
ENDBRANCH  16  19
ENDBRANCH  14  15
BRANCH  14  27
ATOM     27  C   UNL     1      15.040  15.166  -5.103  1.00  0.00     0.247 C 
ATOM     28  O   UNL     1      14.015  15.120  -5.785  1.00  0.00    -0.272 OA
ATOM     29  N   UNL     1      16.062  16.078  -5.304  1.00  0.00    -0.324 N 
ATOM     30  H   UNL     1      16.979  15.745  -5.036  1.00  0.00     0.170 HD
BRANCH  29  31
ATOM     31  C   UNL     1      15.961  16.959  -6.396  1.00  0.00     0.041 A 
ATOM     32  C   UNL     1      16.313  16.533  -7.683  1.00  0.00     0.026 A 
ATOM     33  C   UNL     1      15.607  18.283  -6.162  1.00  0.00     0.026 A 
ATOM     34  C   UNL     1      16.367  17.450  -8.730  1.00  0.00     0.002 A 
ATOM     35  C   UNL     1      15.704  19.206  -7.203  1.00  0.00     0.002 A 
ATOM     36  C   UNL     1      16.086  18.793  -8.482  1.00  0.00     0.000 A 
ENDBRANCH  29  31
ENDBRANCH  14  27
ENDBRANCH  13  14
ENDBRANCH  12  13
ENDBRANCH   1  12
TORSDOF 15
ENDMDL
MODEL 6
REMARK VINA RESULT:    -7.311      6.015     10.184
REMARK INTER + INTRA:         -15.089
REMARK INTER:                 -13.420
REMARK INTRA:                  -1.669
REMARK UNBOUND:                -1.580
REMARK SMILES O=C(O)CC(=S)NCCCC[C@@H](NC(=O)OCc1ccccc1)C(=O)Nc1ccccc1
REMARK SMILES IDX 9 1 8 2 7 3 5 5 6 6 4 7 2 8 1 9 3 10 10 12 11 13 12 14 13 15
REMARK SMILES IDX 14 16 15 18 16 19 17 20 18 21 19 22 23 23 20 24 22 25 21 26
REMARK SMILES IDX 24 27 25 28 26 29 27 31 28 32 32 33 29 34 31 35 30 36
REMARK H PARENT 7 4 3 11 13 17 26 30
REMARK Flexibility Score: inf
ROOT
ATOM      1  C   UNL     1       7.854   7.147  -3.201  1.00  0.00     0.021 C 
ENDROOT
BRANCH   1   2
ATOM      2  C   UNL     1       6.411   7.220  -3.672  1.00  0.00     0.113 C 
BRANCH   2   3
ATOM      3  N   UNL     1       5.554   8.082  -2.898  1.00  0.00    -0.379 N 
ATOM      4  H   UNL     1       4.665   7.679  -2.619  1.00  0.00     0.161 HD
BRANCH   3   5
ATOM      5  C   UNL     1       5.510   9.443  -3.046  1.00  0.00     0.087 C 
ATOM      6  S   UNL     1       5.411  10.058  -4.598  1.00  0.00    -0.065 S 
BRANCH   5   7
ATOM      7  C   UNL     1       5.721  10.293  -1.815  1.00  0.00     0.188 C 
BRANCH   7   8
ATOM      8  C   UNL     1       6.663  11.452  -1.934  1.00  0.00     0.310 C 
ATOM      9  O   UNL     1       6.381  12.593  -2.268  1.00  0.00    -0.252 OA
BRANCH   8  10
ATOM     10  O   UNL     1       7.906  11.120  -1.505  1.00  0.00    -0.481 OA
ATOM     11  H   UNL     1       8.033  10.156  -1.389  1.00  0.00     0.296 HD
ENDBRANCH   8  10
ENDBRANCH   7   8
ENDBRANCH   5   7
ENDBRANCH   3   5
ENDBRANCH   2   3
ENDBRANCH   1   2
BRANCH   1  12
ATOM     12  C   UNL     1       7.997   7.298  -1.679  1.00  0.00     0.004 C 
BRANCH  12  13
ATOM     13  C   UNL     1       9.307   7.920  -1.183  1.00  0.00     0.035 C 
BRANCH  13  14
ATOM     14  C   UNL     1      10.490   8.014  -2.176  1.00  0.00     0.175 C 
BRANCH  14  15
ATOM     15  N   UNL     1      10.904   9.404  -2.411  1.00  0.00    -0.310 N 
ATOM     16  C   UNL     1      10.226  10.245  -3.260  1.00  0.00     0.408 C 
ATOM     17  H   UNL     1      11.523   9.852  -1.748  1.00  0.00     0.167 HD
ATOM     18  O   UNL     1       9.426   9.874  -4.103  1.00  0.00    -0.225 OA
BRANCH  16  19
ATOM     19  O   UNL     1      10.532  11.542  -2.988  1.00  0.00    -0.445 OA
BRANCH  19  20
ATOM     20  C   UNL     1      11.028  12.327  -4.095  1.00  0.00     0.270 C 
BRANCH  20  21
ATOM     21  C   UNL     1      12.521  12.188  -4.347  1.00  0.00    -0.011 A 
ATOM     22  C   UNL     1      13.474  12.655  -3.429  1.00  0.00     0.007 A 
ATOM     23  C   UNL     1      12.977  11.466  -5.466  1.00  0.00     0.007 A 
ATOM     24  C   UNL     1      14.840  12.403  -3.623  1.00  0.00     0.000 A 
ATOM     25  C   UNL     1      14.341  11.233  -5.670  1.00  0.00     0.000 A 
ATOM     26  C   UNL     1      15.273  11.689  -4.740  1.00  0.00     0.000 A 
ENDBRANCH  20  21
ENDBRANCH  19  20
ENDBRANCH  16  19
ENDBRANCH  14  15
BRANCH  14  27
ATOM     27  C   UNL     1      11.549   6.979  -1.769  1.00  0.00     0.247 C 
ATOM     28  O   UNL     1      11.477   5.815  -2.168  1.00  0.00    -0.272 OA
ATOM     29  N   UNL     1      12.643   7.502  -1.102  1.00  0.00    -0.324 N 
ATOM     30  H   UNL     1      12.422   8.244  -0.452  1.00  0.00     0.170 HD
BRANCH  29  31
ATOM     31  C   UNL     1      13.709   6.637  -0.794  1.00  0.00     0.041 A 
ATOM     32  C   UNL     1      14.438   6.019  -1.819  1.00  0.00     0.026 A 
ATOM     33  C   UNL     1      13.961   6.325   0.537  1.00  0.00     0.026 A 
ATOM     34  C   UNL     1      15.382   5.043  -1.512  1.00  0.00     0.002 A 
ATOM     35  C   UNL     1      14.875   5.316   0.838  1.00  0.00     0.002 A 
ATOM     36  C   UNL     1      15.582   4.675  -0.183  1.00  0.00     0.000 A 
ENDBRANCH  29  31
ENDBRANCH  14  27
ENDBRANCH  13  14
ENDBRANCH  12  13
ENDBRANCH   1  12
TORSDOF 15
ENDMDL
MODEL 7
REMARK VINA RESULT:    -7.263      2.823      8.085
REMARK INTER + INTRA:         -15.000
REMARK INTER:                 -12.568
REMARK INTRA:                  -2.432
REMARK UNBOUND:                -1.580
REMARK SMILES O=C(O)CC(=S)NCCCC[C@@H](NC(=O)OCc1ccccc1)C(=O)Nc1ccccc1
REMARK SMILES IDX 9 1 8 2 7 3 5 5 6 6 4 7 2 8 1 9 3 10 10 12 11 13 12 14 13 15
REMARK SMILES IDX 14 16 15 18 16 19 17 20 18 21 19 22 23 23 20 24 22 25 21 26
REMARK SMILES IDX 24 27 25 28 26 29 27 31 28 32 32 33 29 34 31 35 30 36
REMARK H PARENT 7 4 3 11 13 17 26 30
REMARK Flexibility Score: inf
ROOT
ATOM      1  C   UNL     1      12.114  14.046  -6.445  1.00  0.00     0.021 C 
ENDROOT
BRANCH   1   2
ATOM      2  C   UNL     1      12.193  15.555  -6.288  1.00  0.00     0.113 C 
BRANCH   2   3
ATOM      3  N   UNL     1      13.526  16.100  -6.244  1.00  0.00    -0.379 N 
ATOM      4  H   UNL     1      13.781  16.566  -5.378  1.00  0.00     0.161 HD
BRANCH   3   5
ATOM      5  C   UNL     1      14.182  16.598  -7.340  1.00  0.00     0.087 C 
ATOM      6  S   UNL     1      13.320  16.748  -8.765  1.00  0.00    -0.065 S 
BRANCH   5   7
ATOM      7  C   UNL     1      15.672  16.818  -7.229  1.00  0.00     0.188 C 
BRANCH   7   8
ATOM      8  C   UNL     1      16.138  17.919  -6.325  1.00  0.00     0.310 C 
ATOM      9  O   UNL     1      16.421  19.062  -6.649  1.00  0.00    -0.252 OA
BRANCH   8  10
ATOM     10  O   UNL     1      16.107  17.532  -5.025  1.00  0.00    -0.481 OA
ATOM     11  H   UNL     1      15.494  18.063  -4.476  1.00  0.00     0.296 HD
ENDBRANCH   8  10
ENDBRANCH   7   8
ENDBRANCH   5   7
ENDBRANCH   3   5
ENDBRANCH   2   3
ENDBRANCH   1   2
BRANCH   1  12
ATOM     12  C   UNL     1      12.055  13.305  -5.101  1.00  0.00     0.004 C 
BRANCH  12  13
ATOM     13  C   UNL     1      13.115  12.221  -4.881  1.00  0.00     0.035 C 
BRANCH  13  14
ATOM     14  C   UNL     1      14.063  12.365  -3.665  1.00  0.00     0.175 C 
BRANCH  14  15
ATOM     15  N   UNL     1      14.050  13.727  -3.115  1.00  0.00    -0.310 N 
ATOM     16  C   UNL     1      14.772  14.756  -3.670  1.00  0.00     0.408 C 
ATOM     17  H   UNL     1      13.301  13.999  -2.492  1.00  0.00     0.167 HD
ATOM     18  O   UNL     1      15.692  14.606  -4.456  1.00  0.00    -0.225 OA
BRANCH  16  19
ATOM     19  O   UNL     1      14.278  15.956  -3.260  1.00  0.00    -0.445 OA
BRANCH  19  20
ATOM     20  C   UNL     1      12.976  15.932  -2.636  1.00  0.00     0.270 C 
BRANCH  20  21
ATOM     21  C   UNL     1      12.931  16.548  -1.246  1.00  0.00    -0.011 A 
ATOM     22  C   UNL     1      14.073  17.092  -0.640  1.00  0.00     0.007 A 
ATOM     23  C   UNL     1      11.696  16.695  -0.586  1.00  0.00     0.007 A 
ATOM     24  C   UNL     1      13.982  17.766   0.587  1.00  0.00     0.000 A 
ATOM     25  C   UNL     1      11.609  17.350   0.647  1.00  0.00     0.000 A 
ATOM     26  C   UNL     1      12.750  17.899   1.227  1.00  0.00     0.000 A 
ENDBRANCH  20  21
ENDBRANCH  19  20
ENDBRANCH  16  19
ENDBRANCH  14  15
BRANCH  14  27
ATOM     27  C   UNL     1      13.828  11.176  -2.721  1.00  0.00     0.247 C 
ATOM     28  O   UNL     1      14.450  11.081  -1.662  1.00  0.00    -0.272 OA
ATOM     29  N   UNL     1      12.762  10.364  -3.068  1.00  0.00    -0.324 N 
ATOM     30  H   UNL     1      12.654  10.216  -4.063  1.00  0.00     0.170 HD
BRANCH  29  31
ATOM     31  C   UNL     1      12.412   9.319  -2.194  1.00  0.00     0.041 A 
ATOM     32  C   UNL     1      13.162   8.136  -2.168  1.00  0.00     0.026 A 
ATOM     33  C   UNL     1      11.254   9.437  -1.433  1.00  0.00     0.026 A 
ATOM     34  C   UNL     1      12.720   7.047  -1.423  1.00  0.00     0.002 A 
ATOM     35  C   UNL     1      10.791   8.329  -0.724  1.00  0.00     0.002 A 
ATOM     36  C   UNL     1      11.519   7.137  -0.721  1.00  0.00     0.000 A 
ENDBRANCH  29  31
ENDBRANCH  14  27
ENDBRANCH  13  14
ENDBRANCH  12  13
ENDBRANCH   1  12
TORSDOF 15
ENDMDL
MODEL 8
REMARK VINA RESULT:    -6.990      3.677      8.970
REMARK INTER + INTRA:         -14.495
REMARK INTER:                 -12.531
REMARK INTRA:                  -1.965
REMARK UNBOUND:                -1.580
REMARK SMILES O=C(O)CC(=S)NCCCC[C@@H](NC(=O)OCc1ccccc1)C(=O)Nc1ccccc1
REMARK SMILES IDX 9 1 8 2 7 3 5 5 6 6 4 7 2 8 1 9 3 10 10 12 11 13 12 14 13 15
REMARK SMILES IDX 14 16 15 18 16 19 17 20 18 21 19 22 23 23 20 24 22 25 21 26
REMARK SMILES IDX 24 27 25 28 26 29 27 31 28 32 32 33 29 34 31 35 30 36
REMARK H PARENT 7 4 3 11 13 17 26 30
REMARK Flexibility Score: inf
ROOT
ATOM      1  C   UNL     1      13.835  20.062  -6.741  1.00  0.00     0.021 C 
ENDROOT
BRANCH   1   2
ATOM      2  C   UNL     1      13.285  18.812  -7.407  1.00  0.00     0.113 C 
BRANCH   2   3
ATOM      3  N   UNL     1      13.471  18.742  -8.834  1.00  0.00    -0.379 N 
ATOM      4  H   UNL     1      12.969  19.438  -9.377  1.00  0.00     0.161 HD
BRANCH   3   5
ATOM      5  C   UNL     1      13.685  17.574  -9.518  1.00  0.00     0.087 C 
ATOM      6  S   UNL     1      12.360  16.814 -10.200  1.00  0.00    -0.065 S 
BRANCH   5   7
ATOM      7  C   UNL     1      15.068  16.969  -9.464  1.00  0.00     0.188 C 
BRANCH   7   8
ATOM      8  C   UNL     1      16.200  17.799  -9.988  1.00  0.00     0.310 C 
ATOM      9  O   UNL     1      16.136  18.670 -10.843  1.00  0.00    -0.252 OA
BRANCH   8  10
ATOM     10  O   UNL     1      17.346  17.554  -9.304  1.00  0.00    -0.481 OA
ATOM     11  H   UNL     1      18.002  18.277  -9.372  1.00  0.00     0.296 HD
ENDBRANCH   8  10
ENDBRANCH   7   8
ENDBRANCH   5   7
ENDBRANCH   3   5
ENDBRANCH   2   3
ENDBRANCH   1   2
BRANCH   1  12
ATOM     12  C   UNL     1      14.992  19.768  -5.776  1.00  0.00     0.004 C 
BRANCH  12  13
ATOM     13  C   UNL     1      15.633  18.381  -5.894  1.00  0.00     0.035 C 
BRANCH  13  14
ATOM     14  C   UNL     1      15.423  17.380  -4.732  1.00  0.00     0.175 C 
BRANCH  14  15
ATOM     15  N   UNL     1      14.535  17.920  -3.694  1.00  0.00    -0.310 N 
ATOM     16  C   UNL     1      14.694  17.629  -2.360  1.00  0.00     0.408 C 
ATOM     17  H   UNL     1      13.967  18.730  -3.904  1.00  0.00     0.167 HD
ATOM     18  O   UNL     1      15.363  16.703  -1.932  1.00  0.00    -0.225 OA
BRANCH  16  19
ATOM     19  O   UNL     1      14.048  18.549  -1.594  1.00  0.00    -0.445 OA
BRANCH  19  20
ATOM     20  C   UNL     1      13.429  19.647  -2.299  1.00  0.00     0.270 C 
BRANCH  20  21
ATOM     21  C   UNL     1      13.810  21.024  -1.779  1.00  0.00    -0.011 A 
ATOM     22  C   UNL     1      15.134  21.353  -1.452  1.00  0.00     0.007 A 
ATOM     23  C   UNL     1      12.843  22.047  -1.735  1.00  0.00     0.007 A 
ATOM     24  C   UNL     1      15.481  22.664  -1.095  1.00  0.00     0.000 A 
ATOM     25  C   UNL     1      13.186  23.350  -1.359  1.00  0.00     0.000 A 
ATOM     26  C   UNL     1      14.508  23.663  -1.053  1.00  0.00     0.000 A 
ENDBRANCH  20  21
ENDBRANCH  19  20
ENDBRANCH  16  19
ENDBRANCH  14  15
BRANCH  14  27
ATOM     27  C   UNL     1      15.118  15.998  -5.329  1.00  0.00     0.247 C 
ATOM     28  O   UNL     1      15.634  15.644  -6.391  1.00  0.00    -0.272 OA
ATOM     29  N   UNL     1      14.394  15.158  -4.503  1.00  0.00    -0.324 N 
ATOM     30  H   UNL     1      13.672  15.618  -3.964  1.00  0.00     0.170 HD
BRANCH  29  31
ATOM     31  C   UNL     1      14.170  13.836  -4.931  1.00  0.00     0.041 A 
ATOM     32  C   UNL     1      12.967  13.491  -5.561  1.00  0.00     0.026 A 
ATOM     33  C   UNL     1      15.113  12.861  -4.628  1.00  0.00     0.026 A 
ATOM     34  C   UNL     1      12.683  12.156  -5.836  1.00  0.00     0.002 A 
ATOM     35  C   UNL     1      14.806  11.521  -4.865  1.00  0.00     0.002 A 
ATOM     36  C   UNL     1      13.594  11.169  -5.464  1.00  0.00     0.000 A 
ENDBRANCH  29  31
ENDBRANCH  14  27
ENDBRANCH  13  14
ENDBRANCH  12  13
ENDBRANCH   1  12
TORSDOF 15
ENDMDL
MODEL 9
REMARK VINA RESULT:    -6.965      2.999      7.423
REMARK INTER + INTRA:         -14.449
REMARK INTER:                 -12.863
REMARK INTRA:                  -1.586
REMARK UNBOUND:                -1.580
REMARK SMILES O=C(O)CC(=S)NCCCC[C@@H](NC(=O)OCc1ccccc1)C(=O)Nc1ccccc1
REMARK SMILES IDX 9 1 8 2 7 3 5 5 6 6 4 7 2 8 1 9 3 10 10 12 11 13 12 14 13 15
REMARK SMILES IDX 14 16 15 18 16 19 17 20 18 21 19 22 23 23 20 24 22 25 21 26
REMARK SMILES IDX 24 27 25 28 26 29 27 31 28 32 32 33 29 34 31 35 30 36
REMARK H PARENT 7 4 3 11 13 17 26 30
REMARK Flexibility Score: inf
ROOT
ATOM      1  C   UNL     1      14.957  11.789  -3.240  1.00  0.00     0.021 C 
ENDROOT
BRANCH   1   2
ATOM      2  C   UNL     1      14.043  10.593  -3.448  1.00  0.00     0.113 C 
BRANCH   2   3
ATOM      3  N   UNL     1      12.632  10.872  -3.356  1.00  0.00    -0.379 N 
ATOM      4  H   UNL     1      12.369  11.845  -3.480  1.00  0.00     0.161 HD
BRANCH   3   5
ATOM      5  C   UNL     1      11.769  10.176  -2.551  1.00  0.00     0.087 C 
ATOM      6  S   UNL     1      10.141  10.215  -2.933  1.00  0.00    -0.065 S 
BRANCH   5   7
ATOM      7  C   UNL     1      12.324   9.566  -1.286  1.00  0.00     0.188 C 
BRANCH   7   8
ATOM      8  C   UNL     1      12.372   8.070  -1.210  1.00  0.00     0.310 C 
ATOM      9  O   UNL     1      13.062   7.324  -1.888  1.00  0.00    -0.252 OA
BRANCH   8  10
ATOM     10  O   UNL     1      11.615   7.606  -0.184  1.00  0.00    -0.481 OA
ATOM     11  H   UNL     1      11.062   6.834  -0.427  1.00  0.00     0.296 HD
ENDBRANCH   8  10
ENDBRANCH   7   8
ENDBRANCH   5   7
ENDBRANCH   3   5
ENDBRANCH   2   3
ENDBRANCH   1   2
BRANCH   1  12
ATOM     12  C   UNL     1      15.094  12.664  -4.495  1.00  0.00     0.004 C 
BRANCH  12  13
ATOM     13  C   UNL     1      14.940  14.174  -4.285  1.00  0.00     0.035 C 
BRANCH  13  14
ATOM     14  C   UNL     1      13.928  14.934  -5.175  1.00  0.00     0.175 C 
BRANCH  14  15
ATOM     15  N   UNL     1      12.835  15.523  -4.389  1.00  0.00    -0.310 N 
ATOM     16  C   UNL     1      11.957  14.761  -3.657  1.00  0.00     0.408 C 
ATOM     17  H   UNL     1      12.877  16.504  -4.147  1.00  0.00     0.167 HD
ATOM     18  O   UNL     1      11.798  13.561  -3.802  1.00  0.00    -0.225 OA
BRANCH  16  19
ATOM     19  O   UNL     1      11.336  15.525  -2.717  1.00  0.00    -0.445 OA
BRANCH  19  20
ATOM     20  C   UNL     1      11.761  16.903  -2.632  1.00  0.00     0.270 C 
BRANCH  20  21
ATOM     21  C   UNL     1      12.512  17.254  -1.358  1.00  0.00    -0.011 A 
ATOM     22  C   UNL     1      11.882  17.266  -0.105  1.00  0.00     0.007 A 
ATOM     23  C   UNL     1      13.906  17.454  -1.400  1.00  0.00     0.007 A 
ATOM     24  C   UNL     1      12.622  17.469   1.069  1.00  0.00     0.000 A 
ATOM     25  C   UNL     1      14.641  17.675  -0.231  1.00  0.00     0.000 A 
ATOM     26  C   UNL     1      14.002  17.668   1.006  1.00  0.00     0.000 A 
ENDBRANCH  20  21
ENDBRANCH  19  20
ENDBRANCH  16  19
ENDBRANCH  14  15
BRANCH  14  27
ATOM     27  C   UNL     1      14.711  15.827  -6.149  1.00  0.00     0.247 C 
ATOM     28  O   UNL     1      15.941  15.776  -6.199  1.00  0.00    -0.272 OA
ATOM     29  N   UNL     1      13.928  16.520  -7.055  1.00  0.00    -0.324 N 
ATOM     30  H   UNL     1      13.058  16.870  -6.677  1.00  0.00     0.170 HD
BRANCH  29  31
ATOM     31  C   UNL     1      14.575  17.273  -8.053  1.00  0.00     0.041 A 
ATOM     32  C   UNL     1      15.016  16.655  -9.231  1.00  0.00     0.026 A 
ATOM     33  C   UNL     1      14.861  18.611  -7.808  1.00  0.00     0.026 A 
ATOM     34  C   UNL     1      15.796  17.366 -10.139  1.00  0.00     0.002 A 
ATOM     35  C   UNL     1      15.679  19.306  -8.699  1.00  0.00     0.002 A 
ATOM     36  C   UNL     1      16.147  18.685  -9.859  1.00  0.00     0.000 A 
ENDBRANCH  29  31
ENDBRANCH  14  27
ENDBRANCH  13  14
ENDBRANCH  12  13
ENDBRANCH   1  12
TORSDOF 15
ENDMDL
