MODEL 1
REMARK VINA RESULT:    -8.753      0.000      0.000
REMARK INTER + INTRA:           1.670
REMARK INTER:                 -18.731
REMARK INTRA:                  20.401
REMARK UNBOUND:                20.401
REMARK SMILES O=C(O)CCNC(=S)NCCCC[C@H](NS(=O)(=O)c1cccc(F)c1)C(=O)N[C@@H](Cc1c[nH]c2ccccc12)C(=O)NC1CCC1
REMARK SMILES IDX 11 1 12 2 13 3 14 4 15 5 16 7 17 8 18 9 19 10 20 11 25 12
REMARK SMILES IDX 21 13 23 14 22 15 24 16 26 17 27 18 28 19 29 21 40 22 41 23
REMARK SMILES IDX 42 24 43 26 44 27 46 28 45 29 30 30 31 31 39 32 32 33 34 34
REMARK SMILES IDX 38 35 33 36 35 37 37 38 36 40 10 41 9 42 7 44 8 45 6 46 5 48
REMARK SMILES IDX 4 49 2 50 1 51 3 52
REMARK H PARENT 15 6 28 20 42 25 33 39 9 43 6 47 3 53
REMARK Flexibility Score: inf
ROOT
ATOM      1  C   UNL     1      14.614  11.339  -3.012  1.00  0.00     0.021 C 
ENDROOT
BRANCH   1   2
ATOM      2  C   UNL     1      13.813  11.079  -2.471  1.00  0.00     0.004 C 
BRANCH   2   3
ATOM      3  C   UNL     1      13.156  10.420  -2.836  1.00  0.00     0.030 C 
BRANCH   3   4
ATOM      4  C   UNL     1      12.279  10.282  -2.377  1.00  0.00     0.159 C 
BRANCH   4   5
ATOM      5  N   UNL     1      11.544  10.950  -2.490  1.00  0.00    -0.199 NA
ATOM      6  H   UNL     1      11.575  11.498  -2.201  1.00  0.00     0.142 HD
BRANCH   5   7
ATOM      7  S   UNL     1      10.758  10.736  -3.070  1.00  0.00     0.241 S 
ATOM      8  O   UNL     1      11.359  10.688  -3.868  1.00  0.00    -0.207 OA
ATOM      9  O   UNL     1      10.157  10.784  -2.273  1.00  0.00    -0.207 OA
BRANCH   7  10
ATOM     10  C   UNL     1       9.973  10.521  -3.650  1.00  0.00     0.085 A 
ATOM     11  C   UNL     1      10.113  10.103  -4.548  1.00  0.00     0.022 A 
ATOM     12  C   UNL     1       9.046  10.725  -3.334  1.00  0.00     0.061 A 
ATOM     13  C   UNL     1       9.328   9.888  -5.129  1.00  0.00     0.004 A 
ATOM     14  C   UNL     1       8.261  10.510  -3.914  1.00  0.00     0.124 A 
ATOM     15  C   UNL     1       8.401  10.091  -4.812  1.00  0.00     0.039 A 
ATOM     16  F   UNL     1       7.334  10.714  -3.598  1.00  0.00    -0.207 F 
ENDBRANCH   7  10
ENDBRANCH   5   7
ENDBRANCH   4   5
BRANCH   4  17
ATOM     17  C   UNL     1      12.136   9.475  -1.804  1.00  0.00     0.238 C 
ATOM     18  O   UNL     1      11.961   9.580  -0.825  1.00  0.00    -0.273 OA
ATOM     19  N   UNL     1      12.167   8.561  -2.210  1.00  0.00    -0.343 N 
ATOM     20  H   UNL     1      12.275   8.496  -2.818  1.00  0.00     0.164 HD
BRANCH  19  21
ATOM     21  C   UNL     1      12.024   7.755  -1.638  1.00  0.00     0.175 C 
BRANCH  21  22
ATOM     22  C   UNL     1      12.806   7.207  -1.342  1.00  0.00     0.243 C 
ATOM     23  O   UNL     1      13.530   6.977  -1.993  1.00  0.00    -0.273 OA
ATOM     24  N   UNL     1      12.866   6.888  -0.396  1.00  0.00    -0.352 N 
ATOM     25  H   UNL     1      12.417   7.030   0.007  1.00  0.00     0.163 HD
BRANCH  24  26
ATOM     26  C   UNL     1      13.649   6.339  -0.101  1.00  0.00     0.082 C 
ATOM     27  C   UNL     1      14.472   6.515   0.438  1.00  0.00     0.025 C 
ATOM     28  C   UNL     1      13.932   5.389  -0.224  1.00  0.00     0.025 C 
ATOM     29  C   UNL     1      14.756   5.564   0.315  1.00  0.00     0.004 C 
ENDBRANCH  24  26
ENDBRANCH  21  22
BRANCH  21  30
ATOM     30  C   UNL     1      11.099   7.496  -1.360  1.00  0.00     0.072 C 
BRANCH  30  31
ATOM     31  C   UNL     1      10.431   7.212  -2.049  1.00  0.00    -0.020 A 
ATOM     32  C   UNL     1       9.444   7.312  -1.981  1.00  0.00     0.003 A 
ATOM     33  C   UNL     1      10.638   6.781  -2.921  1.00  0.00     0.087 A 
ATOM     34  C   UNL     1       9.040   6.940  -2.817  1.00  0.00     0.046 A 
ATOM     35  C   UNL     1       8.856   7.694  -1.268  1.00  0.00     0.010 A 
ATOM     36  N   UNL     1       9.781   6.614  -3.393  1.00  0.00    -0.361 N 
ATOM     37  C   UNL     1       8.048   6.950  -2.940  1.00  0.00     0.026 A 
ATOM     38  C   UNL     1       7.864   7.704  -1.391  1.00  0.00     0.001 A 
ATOM     39  H   UNL     1       9.718   6.351  -3.952  1.00  0.00     0.166 HD
ATOM     40  C   UNL     1       7.459   7.331  -2.227  1.00  0.00     0.002 A 
ENDBRANCH  30  31
ENDBRANCH  21  30
ENDBRANCH  19  21
ENDBRANCH   4  17
ENDBRANCH   3   4
ENDBRANCH   2   3
ENDBRANCH   1   2
BRANCH   1  41
ATOM     41  C   UNL     1      14.580  12.149  -3.597  1.00  0.00     0.115 C 
BRANCH  41  42
ATOM     42  N   UNL     1      15.102  12.966  -3.351  1.00  0.00    -0.363 N 
ATOM     43  H   UNL     1      15.590  12.919  -2.973  1.00  0.00     0.162 HD
BRANCH  42  44
ATOM     44  C   UNL     1      14.837  13.858  -3.716  1.00  0.00     0.166 C 
ATOM     45  S   UNL     1      14.975  14.063  -4.686  1.00  0.00    -0.041 S 
BRANCH  44  46
ATOM     46  N   UNL     1      14.433  14.545  -3.113  1.00  0.00    -0.362 N 
ATOM     47  H   UNL     1      13.858  14.467  -2.895  1.00  0.00     0.162 HD
BRANCH  46  48
ATOM     48  C   UNL     1      14.957  15.359  -2.861  1.00  0.00     0.127 C 
BRANCH  48  49
ATOM     49  C   UNL     1      14.604  15.986  -2.166  1.00  0.00     0.143 C 
BRANCH  49  50
ATOM     50  C   UNL     1      15.080  16.845  -1.978  1.00  0.00     0.305 C 
ATOM     51  O   UNL     1      14.804  17.410  -1.200  1.00  0.00    -0.252 OA
BRANCH  50  52
ATOM     52  O   UNL     1      15.832  17.138  -2.567  1.00  0.00    -0.481 OA
ATOM     53  H   UNL     1      16.410  16.945  -2.452  1.00  0.00     0.296 HD
ENDBRANCH  50  52
ENDBRANCH  49  50
ENDBRANCH  48  49
ENDBRANCH  46  48
ENDBRANCH  44  46
ENDBRANCH  42  44
ENDBRANCH  41  42
ENDBRANCH   1  41
TORSDOF 20
ENDMDL
MODEL 2
REMARK VINA RESULT:    -8.551      1.778      2.125
REMARK INTER + INTRA:           2.103
REMARK INTER:                 -17.409
REMARK INTRA:                  19.511
REMARK UNBOUND:                20.401
REMARK SMILES O=C(O)CCNC(=S)NCCCC[C@H](NS(=O)(=O)c1cccc(F)c1)C(=O)N[C@@H](Cc1c[nH]c2ccccc12)C(=O)NC1CCC1
REMARK SMILES IDX 11 1 12 2 13 3 14 4 15 5 16 7 17 8 18 9 19 10 20 11 25 12
REMARK SMILES IDX 21 13 23 14 22 15 24 16 26 17 27 18 28 19 29 21 40 22 41 23
REMARK SMILES IDX 42 24 43 26 44 27 46 28 45 29 30 30 31 31 39 32 32 33 34 34
REMARK SMILES IDX 38 35 33 36 35 37 37 38 36 40 10 41 9 42 7 44 8 45 6 46 5 48
REMARK SMILES IDX 4 49 2 50 1 51 3 52
REMARK H PARENT 15 6 28 20 42 25 33 39 9 43 6 47 3 53
REMARK Flexibility Score: inf
ROOT
ATOM      1  C   UNL     1      14.598  11.332  -2.959  1.00  0.00     0.021 C 
ENDROOT
BRANCH   1   2
ATOM      2  C   UNL     1      13.871  10.937  -2.396  1.00  0.00     0.004 C 
BRANCH   2   3
ATOM      3  C   UNL     1      13.154  10.384  -2.822  1.00  0.00     0.030 C 
BRANCH   3   4
ATOM      4  C   UNL     1      12.281  10.251  -2.353  1.00  0.00     0.159 C 
BRANCH   4   5
ATOM      5  N   UNL     1      11.551  10.926  -2.455  1.00  0.00    -0.199 NA
ATOM      6  H   UNL     1      11.585  11.469  -2.157  1.00  0.00     0.142 HD
BRANCH   5   7
ATOM      7  S   UNL     1      10.763  10.726  -3.039  1.00  0.00     0.241 S 
ATOM      8  O   UNL     1      10.159  10.781  -2.243  1.00  0.00    -0.207 OA
ATOM      9  O   UNL     1      11.367  10.670  -3.834  1.00  0.00    -0.207 OA
BRANCH   7  10
ATOM     10  C   UNL     1       9.976  10.526  -3.621  1.00  0.00     0.085 A 
ATOM     11  C   UNL     1      10.112  10.106  -4.520  1.00  0.00     0.022 A 
ATOM     12  C   UNL     1       9.052  10.744  -3.308  1.00  0.00     0.061 A 
ATOM     13  C   UNL     1       9.326   9.905  -5.103  1.00  0.00     0.004 A 
ATOM     14  C   UNL     1       8.265  10.545  -3.891  1.00  0.00     0.124 A 
ATOM     15  C   UNL     1       8.401  10.125  -4.789  1.00  0.00     0.039 A 
ATOM     16  F   UNL     1       7.341  10.764  -3.577  1.00  0.00    -0.207 F 
ENDBRANCH   7  10
ENDBRANCH   5   7
ENDBRANCH   4   5
BRANCH   4  17
ATOM     17  C   UNL     1      12.138   9.443  -1.782  1.00  0.00     0.238 C 
ATOM     18  O   UNL     1      11.992   9.544  -0.798  1.00  0.00    -0.273 OA
ATOM     19  N   UNL     1      12.141   8.532  -2.195  1.00  0.00    -0.343 N 
ATOM     20  H   UNL     1      12.232   8.468  -2.806  1.00  0.00     0.164 HD
BRANCH  19  21
ATOM     21  C   UNL     1      11.998   7.724  -1.624  1.00  0.00     0.175 C 
BRANCH  21  22
ATOM     22  C   UNL     1      12.780   7.168  -1.341  1.00  0.00     0.243 C 
ATOM     23  O   UNL     1      13.483   6.918  -2.007  1.00  0.00    -0.273 OA
ATOM     24  N   UNL     1      12.858   6.861  -0.392  1.00  0.00    -0.352 N 
ATOM     25  H   UNL     1      12.422   7.016   0.020  1.00  0.00     0.163 HD
BRANCH  24  26
ATOM     26  C   UNL     1      13.640   6.304  -0.109  1.00  0.00     0.082 C 
ATOM     27  C   UNL     1      13.902   5.346  -0.216  1.00  0.00     0.025 C 
ATOM     28  C   UNL     1      14.484   6.478   0.397  1.00  0.00     0.025 C 
ATOM     29  C   UNL     1      14.746   5.519   0.290  1.00  0.00     0.004 C 
ENDBRANCH  24  26
ENDBRANCH  21  22
BRANCH  21  30
ATOM     30  C   UNL     1      11.075   7.472  -1.337  1.00  0.00     0.072 C 
BRANCH  30  31
ATOM     31  C   UNL     1      10.392   7.212  -2.020  1.00  0.00    -0.020 A 
ATOM     32  C   UNL     1       9.409   7.335  -1.938  1.00  0.00     0.003 A 
ATOM     33  C   UNL     1      10.578   6.785  -2.899  1.00  0.00     0.087 A 
ATOM     34  C   UNL     1       8.985   6.981  -2.773  1.00  0.00     0.046 A 
ATOM     35  C   UNL     1       8.839   7.722  -1.214  1.00  0.00     0.010 A 
ATOM     36  N   UNL     1       9.710   6.644  -3.362  1.00  0.00    -0.361 N 
ATOM     37  C   UNL     1       7.992   7.016  -2.883  1.00  0.00     0.026 A 
ATOM     38  C   UNL     1       7.845   7.757  -1.324  1.00  0.00     0.001 A 
ATOM     39  H   UNL     1       9.635   6.388  -3.923  1.00  0.00     0.166 HD
ATOM     40  C   UNL     1       7.422   7.404  -2.158  1.00  0.00     0.002 A 
ENDBRANCH  30  31
ENDBRANCH  21  30
ENDBRANCH  19  21
ENDBRANCH   4  17
ENDBRANCH   3   4
ENDBRANCH   2   3
ENDBRANCH   1   2
BRANCH   1  41
ATOM     41  C   UNL     1      14.674  12.323  -3.054  1.00  0.00     0.115 C 
BRANCH  41  42
ATOM     42  N   UNL     1      14.722  12.737  -3.963  1.00  0.00    -0.363 N 
ATOM     43  H   UNL     1      14.923  12.403  -4.445  1.00  0.00     0.162 HD
BRANCH  42  44
ATOM     44  C   UNL     1      14.444  13.688  -4.096  1.00  0.00     0.166 C 
ATOM     45  S   UNL     1      15.064  14.430  -3.839  1.00  0.00    -0.041 S 
BRANCH  44  46
ATOM     46  N   UNL     1      13.548  13.898  -4.485  1.00  0.00    -0.362 N 
ATOM     47  H   UNL     1      13.128  14.206  -4.149  1.00  0.00     0.162 HD
BRANCH  46  48
ATOM     48  C   UNL     1      13.328  13.612  -5.418  1.00  0.00     0.127 C 
BRANCH  48  49
ATOM     49  C   UNL     1      12.395  13.711  -5.765  1.00  0.00     0.143 C 
BRANCH  49  50
ATOM     50  C   UNL     1      11.909  12.916  -6.128  1.00  0.00     0.305 C 
ATOM     51  O   UNL     1      10.935  12.982  -6.346  1.00  0.00    -0.252 OA
BRANCH  50  52
ATOM     52  O   UNL     1      12.396  12.055  -6.272  1.00  0.00    -0.481 OA
ATOM     53  H   UNL     1      12.763  11.828  -5.826  1.00  0.00     0.296 HD
ENDBRANCH  50  52
ENDBRANCH  49  50
ENDBRANCH  48  49
ENDBRANCH  46  48
ENDBRANCH  44  46
ENDBRANCH  42  44
ENDBRANCH  41  42
ENDBRANCH   1  41
TORSDOF 20
ENDMDL
MODEL 3
REMARK VINA RESULT:    -8.333      2.487      4.857
REMARK INTER + INTRA:           2.569
REMARK INTER:                 -18.870
REMARK INTRA:                  21.438
REMARK UNBOUND:                20.401
REMARK SMILES O=C(O)CCNC(=S)NCCCC[C@H](NS(=O)(=O)c1cccc(F)c1)C(=O)N[C@@H](Cc1c[nH]c2ccccc12)C(=O)NC1CCC1
REMARK SMILES IDX 11 1 12 2 13 3 14 4 15 5 16 7 17 8 18 9 19 10 20 11 25 12
REMARK SMILES IDX 21 13 23 14 22 15 24 16 26 17 27 18 28 19 29 21 40 22 41 23
REMARK SMILES IDX 42 24 43 26 44 27 46 28 45 29 30 30 31 31 39 32 32 33 34 34
REMARK SMILES IDX 38 35 33 36 35 37 37 38 36 40 10 41 9 42 7 44 8 45 6 46 5 48
REMARK SMILES IDX 4 49 2 50 1 51 3 52
REMARK H PARENT 15 6 28 20 42 25 33 39 9 43 6 47 3 53
REMARK Flexibility Score: inf
ROOT
ATOM      1  C   UNL     1       9.888  10.836  -3.394  1.00  0.00     0.021 C 
ENDROOT
BRANCH   1   2
ATOM      2  C   UNL     1      10.566  10.633  -2.688  1.00  0.00     0.004 C 
BRANCH   2   3
ATOM      3  C   UNL     1      11.512  10.430  -2.947  1.00  0.00     0.030 C 
BRANCH   3   4
ATOM      4  C   UNL     1      12.182  10.194  -2.245  1.00  0.00     0.159 C 
BRANCH   4   5
ATOM      5  N   UNL     1      12.959  10.799  -2.070  1.00  0.00    -0.199 NA
ATOM      6  H   UNL     1      13.115  10.945  -1.488  1.00  0.00     0.142 HD
BRANCH   5   7
ATOM      7  S   UNL     1      13.485  11.171  -2.836  1.00  0.00     0.241 S 
ATOM      8  O   UNL     1      13.901  10.273  -2.985  1.00  0.00    -0.207 OA
ATOM      9  O   UNL     1      13.069  12.067  -2.686  1.00  0.00    -0.207 OA
BRANCH   7  10
ATOM     10  C   UNL     1      14.010  11.541  -3.601  1.00  0.00     0.085 A 
ATOM     11  C   UNL     1      14.321  12.492  -3.580  1.00  0.00     0.022 A 
ATOM     12  C   UNL     1      14.227  10.963  -4.387  1.00  0.00     0.061 A 
ATOM     13  C   UNL     1      14.847  12.864  -4.345  1.00  0.00     0.004 A 
ATOM     14  C   UNL     1      14.752  11.333  -5.152  1.00  0.00     0.124 A 
ATOM     15  C   UNL     1      15.063  12.284  -5.132  1.00  0.00     0.039 A 
ATOM     16  F   UNL     1      14.969  10.754  -5.939  1.00  0.00    -0.207 F 
ENDBRANCH   7  10
ENDBRANCH   5   7
ENDBRANCH   4   5
BRANCH   4  17
ATOM     17  C   UNL     1      12.077   9.352  -1.716  1.00  0.00     0.238 C 
ATOM     18  O   UNL     1      11.932   9.395  -0.728  1.00  0.00    -0.273 OA
ATOM     19  N   UNL     1      12.118   8.464  -2.176  1.00  0.00    -0.343 N 
ATOM     20  H   UNL     1      12.208   8.437  -2.789  1.00  0.00     0.164 HD
BRANCH  19  21
ATOM     21  C   UNL     1      12.013   7.622  -1.647  1.00  0.00     0.175 C 
BRANCH  21  22
ATOM     22  C   UNL     1      12.820   7.094  -1.385  1.00  0.00     0.243 C 
ATOM     23  O   UNL     1      13.553   6.938  -2.048  1.00  0.00    -0.273 OA
ATOM     24  N   UNL     1      12.895   6.720  -0.460  1.00  0.00    -0.352 N 
ATOM     25  H   UNL     1      12.441   6.816  -0.050  1.00  0.00     0.163 HD
BRANCH  24  26
ATOM     26  C   UNL     1      13.703   6.191  -0.198  1.00  0.00     0.082 C 
ATOM     27  C   UNL     1      14.049   5.277  -0.410  1.00  0.00     0.025 C 
ATOM     28  C   UNL     1      14.498   6.357   0.384  1.00  0.00     0.025 C 
ATOM     29  C   UNL     1      14.844   5.444   0.172  1.00  0.00     0.004 C 
ENDBRANCH  24  26
ENDBRANCH  21  22
BRANCH  21  30
ATOM     30  C   UNL     1      11.102   7.309  -1.381  1.00  0.00     0.072 C 
BRANCH  30  31
ATOM     31  C   UNL     1      10.420   7.099  -2.083  1.00  0.00    -0.020 A 
ATOM     32  C   UNL     1       9.438   7.226  -1.999  1.00  0.00     0.003 A 
ATOM     33  C   UNL     1      10.607   6.727  -2.986  1.00  0.00     0.087 A 
ATOM     34  C   UNL     1       9.016   6.930  -2.856  1.00  0.00     0.046 A 
ATOM     35  C   UNL     1       8.867   7.573  -1.255  1.00  0.00     0.010 A 
ATOM     36  N   UNL     1       9.741   6.623  -3.462  1.00  0.00    -0.361 N 
ATOM     37  C   UNL     1       8.024   6.981  -2.969  1.00  0.00     0.026 A 
ATOM     38  C   UNL     1       7.875   7.624  -1.368  1.00  0.00     0.001 A 
ATOM     39  H   UNL     1       9.667   6.404  -4.038  1.00  0.00     0.166 HD
ATOM     40  C   UNL     1       7.453   7.328  -2.225  1.00  0.00     0.002 A 
ENDBRANCH  30  31
ENDBRANCH  21  30
ENDBRANCH  19  21
ENDBRANCH   4  17
ENDBRANCH   3   4
ENDBRANCH   2   3
ENDBRANCH   1   2
BRANCH   1  41
ATOM     41  C   UNL     1       8.914  10.727  -3.198  1.00  0.00     0.115 C 
BRANCH  41  42
ATOM     42  N   UNL     1       8.441  11.397  -2.625  1.00  0.00    -0.363 N 
ATOM     43  H   UNL     1       8.753  11.706  -2.187  1.00  0.00     0.162 HD
BRANCH  42  44
ATOM     44  C   UNL     1       7.465  11.568  -2.758  1.00  0.00     0.166 C 
ATOM     45  S   UNL     1       6.807  10.821  -2.654  1.00  0.00    -0.041 S 
BRANCH  44  46
ATOM     46  N   UNL     1       7.146  12.486  -2.993  1.00  0.00    -0.362 N 
ATOM     47  H   UNL     1       7.235  12.708  -3.565  1.00  0.00     0.162 HD
BRANCH  46  48
ATOM     48  C   UNL     1       6.684  13.047  -2.306  1.00  0.00     0.127 C 
BRANCH  48  49
ATOM     49  C   UNL     1       6.487  14.009  -2.496  1.00  0.00     0.143 C 
BRANCH  49  50
ATOM     50  C   UNL     1       5.540  14.329  -2.526  1.00  0.00     0.305 C 
ATOM     51  O   UNL     1       4.900  14.065  -1.804  1.00  0.00    -0.252 OA
BRANCH  50  52
ATOM     52  O   UNL     1       5.234  14.913  -3.277  1.00  0.00    -0.481 OA
ATOM     53  H   UNL     1       4.627  14.978  -3.392  1.00  0.00     0.296 HD
ENDBRANCH  50  52
ENDBRANCH  49  50
ENDBRANCH  48  49
ENDBRANCH  46  48
ENDBRANCH  44  46
ENDBRANCH  42  44
ENDBRANCH  41  42
ENDBRANCH   1  41
TORSDOF 20
ENDMDL
MODEL 4
REMARK VINA RESULT:    -8.255      6.899      9.781
REMARK INTER + INTRA:           2.736
REMARK INTER:                 -18.225
REMARK INTRA:                  20.961
REMARK UNBOUND:                20.401
REMARK SMILES O=C(O)CCNC(=S)NCCCC[C@H](NS(=O)(=O)c1cccc(F)c1)C(=O)N[C@@H](Cc1c[nH]c2ccccc12)C(=O)NC1CCC1
REMARK SMILES IDX 11 1 12 2 13 3 14 4 15 5 16 7 17 8 18 9 19 10 20 11 25 12
REMARK SMILES IDX 21 13 23 14 22 15 24 16 26 17 27 18 28 19 29 21 40 22 41 23
REMARK SMILES IDX 42 24 43 26 44 27 46 28 45 29 30 30 31 31 39 32 32 33 34 34
REMARK SMILES IDX 38 35 33 36 35 37 37 38 36 40 10 41 9 42 7 44 8 45 6 46 5 48
REMARK SMILES IDX 4 49 2 50 1 51 3 52
REMARK H PARENT 15 6 28 20 42 25 33 39 9 43 6 47 3 53
REMARK Flexibility Score: inf
ROOT
ATOM      1  C   UNL     1      15.348  19.176  -6.157  1.00  0.00     0.021 C 
ENDROOT
BRANCH   1   2
ATOM      2  C   UNL     1      14.444  19.159  -5.728  1.00  0.00     0.004 C 
BRANCH   2   3
ATOM      3  C   UNL     1      14.354  19.313  -4.744  1.00  0.00     0.030 C 
BRANCH   3   4
ATOM      4  C   UNL     1      13.515  19.047  -4.271  1.00  0.00     0.159 C 
BRANCH   4   5
ATOM      5  N   UNL     1      12.776  19.709  -4.150  1.00  0.00    -0.199 NA
ATOM      6  H   UNL     1      12.372  19.812  -4.609  1.00  0.00     0.142 HD
BRANCH   5   7
ATOM      7  S   UNL     1      12.689  20.209  -3.288  1.00  0.00     0.241 S 
ATOM      8  O   UNL     1      13.555  20.674  -3.469  1.00  0.00    -0.207 OA
ATOM      9  O   UNL     1      11.823  19.743  -3.106  1.00  0.00    -0.207 OA
BRANCH   7  10
ATOM     10  C   UNL     1      12.602  20.708  -2.426  1.00  0.00     0.085 A 
ATOM     11  C   UNL     1      13.029  21.607  -2.323  1.00  0.00     0.022 A 
ATOM     12  C   UNL     1      12.088  20.310  -1.666  1.00  0.00     0.061 A 
ATOM     13  C   UNL     1      12.943  22.106  -1.462  1.00  0.00     0.004 A 
ATOM     14  C   UNL     1      12.001  20.809  -0.805  1.00  0.00     0.124 A 
ATOM     15  C   UNL     1      12.428  21.708  -0.702  1.00  0.00     0.039 A 
ATOM     16  F   UNL     1      11.486  20.411  -0.045  1.00  0.00    -0.207 F 
ENDBRANCH   7  10
ENDBRANCH   5   7
ENDBRANCH   4   5
BRANCH   4  17
ATOM     17  C   UNL     1      13.414  18.117  -3.918  1.00  0.00     0.238 C 
ATOM     18  O   UNL     1      12.633  17.558  -4.195  1.00  0.00    -0.273 OA
ATOM     19  N   UNL     1      14.096  17.744  -3.287  1.00  0.00    -0.343 N 
ATOM     20  H   UNL     1      14.581  18.091  -3.115  1.00  0.00     0.164 HD
BRANCH  19  21
ATOM     21  C   UNL     1      13.994  16.815  -2.934  1.00  0.00     0.175 C 
BRANCH  21  22
ATOM     22  C   UNL     1      14.435  16.051  -3.406  1.00  0.00     0.243 C 
ATOM     23  O   UNL     1      15.373  16.145  -3.742  1.00  0.00    -0.273 OA
ATOM     24  N   UNL     1      13.939  15.193  -3.542  1.00  0.00    -0.352 N 
ATOM     25  H   UNL     1      13.359  15.135  -3.333  1.00  0.00     0.163 HD
BRANCH  24  26
ATOM     26  C   UNL     1      14.381  14.429  -4.013  1.00  0.00     0.082 C 
ATOM     27  C   UNL     1      14.453  14.133  -4.965  1.00  0.00     0.025 C 
ATOM     28  C   UNL     1      14.933  13.646  -3.728  1.00  0.00     0.025 C 
ATOM     29  C   UNL     1      15.005  13.350  -4.679  1.00  0.00     0.004 C 
ENDBRANCH  24  26
ENDBRANCH  21  22
BRANCH  21  30
ATOM     30  C   UNL     1      13.453  16.649  -2.111  1.00  0.00     0.072 C 
BRANCH  30  31
ATOM     31  C   UNL     1      13.731  17.054  -1.239  1.00  0.00    -0.020 A 
ATOM     32  C   UNL     1      13.153  17.170  -0.439  1.00  0.00     0.003 A 
ATOM     33  C   UNL     1      14.633  17.411  -1.023  1.00  0.00     0.087 A 
ATOM     34  C   UNL     1      13.703  17.602   0.277  1.00  0.00     0.046 A 
ATOM     35  C   UNL     1      12.196  16.940  -0.263  1.00  0.00     0.010 A 
ATOM     36  N   UNL     1      14.615  17.748  -0.088  1.00  0.00    -0.361 N 
ATOM     37  C   UNL     1      13.295  17.803   1.167  1.00  0.00     0.026 A 
ATOM     38  C   UNL     1      11.788  17.142   0.627  1.00  0.00     0.001 A 
ATOM     39  H   UNL     1      15.092  18.006   0.215  1.00  0.00     0.166 HD
ATOM     40  C   UNL     1      12.338  17.573   1.343  1.00  0.00     0.002 A 
ENDBRANCH  30  31
ENDBRANCH  21  30
ENDBRANCH  19  21
ENDBRANCH   4  17
ENDBRANCH   3   4
ENDBRANCH   2   3
ENDBRANCH   1   2
BRANCH   1  41
ATOM     41  C   UNL     1      15.732  18.339  -6.546  1.00  0.00     0.115 C 
BRANCH  41  42
ATOM     42  N   UNL     1      15.971  18.303  -7.517  1.00  0.00    -0.363 N 
ATOM     43  H   UNL     1      15.915  18.810  -7.869  1.00  0.00     0.162 HD
BRANCH  42  44
ATOM     44  C   UNL     1      16.300  17.449  -7.920  1.00  0.00     0.166 C 
ATOM     45  S   UNL     1      16.392  16.631  -7.351  1.00  0.00    -0.041 S 
BRANCH  44  46
ATOM     46  N   UNL     1      16.537  17.413  -8.890  1.00  0.00    -0.362 N 
ATOM     47  H   UNL     1      17.010  17.750  -9.106  1.00  0.00     0.162 HD
BRANCH  46  48
ATOM     48  C   UNL     1      16.012  16.833  -9.512  1.00  0.00     0.127 C 
BRANCH  48  49
ATOM     49  C   UNL     1      16.264  16.778 -10.479  1.00  0.00     0.143 C 
BRANCH  49  50
ATOM     50  C   UNL     1      15.639  16.357 -11.136  1.00  0.00     0.305 C 
ATOM     51  O   UNL     1      15.014  16.930 -11.668  1.00  0.00    -0.252 OA
BRANCH  50  52
ATOM     52  O   UNL     1      15.639  15.366 -11.262  1.00  0.00    -0.481 OA
ATOM     53  H   UNL     1      15.335  15.003 -10.861  1.00  0.00     0.296 HD
ENDBRANCH  50  52
ENDBRANCH  49  50
ENDBRANCH  48  49
ENDBRANCH  46  48
ENDBRANCH  44  46
ENDBRANCH  42  44
ENDBRANCH  41  42
ENDBRANCH   1  41
TORSDOF 20
ENDMDL
MODEL 5
REMARK VINA RESULT:    -8.089      2.417      5.152
REMARK INTER + INTRA:           3.092
REMARK INTER:                 -17.879
REMARK INTRA:                  20.971
REMARK UNBOUND:                20.401
REMARK SMILES O=C(O)CCNC(=S)NCCCC[C@H](NS(=O)(=O)c1cccc(F)c1)C(=O)N[C@@H](Cc1c[nH]c2ccccc12)C(=O)NC1CCC1
REMARK SMILES IDX 11 1 12 2 13 3 14 4 15 5 16 7 17 8 18 9 19 10 20 11 25 12
REMARK SMILES IDX 21 13 23 14 22 15 24 16 26 17 27 18 28 19 29 21 40 22 41 23
REMARK SMILES IDX 42 24 43 26 44 27 46 28 45 29 30 30 31 31 39 32 32 33 34 34
REMARK SMILES IDX 38 35 33 36 35 37 37 38 36 40 10 41 9 42 7 44 8 45 6 46 5 48
REMARK SMILES IDX 4 49 2 50 1 51 3 52
REMARK H PARENT 15 6 28 20 42 25 33 39 9 43 6 47 3 53
REMARK Flexibility Score: inf
ROOT
ATOM      1  C   UNL     1       9.942  10.917  -3.416  1.00  0.00     0.021 C 
ENDROOT
BRANCH   1   2
ATOM      2  C   UNL     1      10.609  10.708  -2.701  1.00  0.00     0.004 C 
BRANCH   2   3
ATOM      3  C   UNL     1      11.549  10.469  -2.948  1.00  0.00     0.030 C 
BRANCH   3   4
ATOM      4  C   UNL     1      12.210  10.237  -2.235  1.00  0.00     0.159 C 
BRANCH   4   5
ATOM      5  N   UNL     1      13.000  10.828  -2.074  1.00  0.00    -0.199 NA
ATOM      6  H   UNL     1      13.159  10.983  -1.495  1.00  0.00     0.142 HD
BRANCH   5   7
ATOM      7  S   UNL     1      13.535  11.170  -2.847  1.00  0.00     0.241 S 
ATOM      8  O   UNL     1      13.141  12.080  -2.718  1.00  0.00    -0.207 OA
ATOM      9  O   UNL     1      13.929  10.260  -2.976  1.00  0.00    -0.207 OA
BRANCH   7  10
ATOM     10  C   UNL     1      14.070  11.512  -3.619  1.00  0.00     0.085 A 
ATOM     11  C   UNL     1      14.201  10.939  -4.429  1.00  0.00     0.022 A 
ATOM     12  C   UNL     1      14.474  12.426  -3.584  1.00  0.00     0.061 A 
ATOM     13  C   UNL     1      14.735  11.280  -5.202  1.00  0.00     0.004 A 
ATOM     14  C   UNL     1      15.008  12.767  -4.356  1.00  0.00     0.124 A 
ATOM     15  C   UNL     1      15.139  12.195  -5.166  1.00  0.00     0.039 A 
ATOM     16  F   UNL     1      15.412  13.682  -4.320  1.00  0.00    -0.207 F 
ENDBRANCH   7  10
ENDBRANCH   5   7
ENDBRANCH   4   5
BRANCH   4  17
ATOM     17  C   UNL     1      12.081   9.414  -1.683  1.00  0.00     0.238 C 
ATOM     18  O   UNL     1      11.959   9.488  -0.694  1.00  0.00    -0.273 OA
ATOM     19  N   UNL     1      12.075   8.514  -2.121  1.00  0.00    -0.343 N 
ATOM     20  H   UNL     1      12.150   8.467  -2.735  1.00  0.00     0.164 HD
BRANCH  19  21
ATOM     21  C   UNL     1      11.946   7.691  -1.569  1.00  0.00     0.175 C 
BRANCH  21  22
ATOM     22  C   UNL     1      12.739   7.154  -1.280  1.00  0.00     0.243 C 
ATOM     23  O   UNL     1      13.465   6.942  -1.935  1.00  0.00    -0.273 OA
ATOM     24  N   UNL     1      12.807   6.830  -0.337  1.00  0.00    -0.352 N 
ATOM     25  H   UNL     1      12.357   6.961   0.069  1.00  0.00     0.163 HD
BRANCH  24  26
ATOM     26  C   UNL     1      13.601   6.293  -0.048  1.00  0.00     0.082 C 
ATOM     27  C   UNL     1      13.892   5.344  -0.163  1.00  0.00     0.025 C 
ATOM     28  C   UNL     1      14.431   6.485   0.474  1.00  0.00     0.025 C 
ATOM     29  C   UNL     1      14.722   5.535   0.360  1.00  0.00     0.004 C 
ENDBRANCH  24  26
ENDBRANCH  21  22
BRANCH  21  30
ATOM     30  C   UNL     1      11.026   7.403  -1.306  1.00  0.00     0.072 C 
BRANCH  30  31
ATOM     31  C   UNL     1      10.339   7.217  -2.010  1.00  0.00    -0.020 A 
ATOM     32  C   UNL     1       9.367   7.412  -1.944  1.00  0.00     0.003 A 
ATOM     33  C   UNL     1      10.512   6.803  -2.898  1.00  0.00     0.087 A 
ATOM     34  C   UNL     1       8.936   7.117  -2.797  1.00  0.00     0.046 A 
ATOM     35  C   UNL     1       8.813   7.820  -1.219  1.00  0.00     0.010 A 
ATOM     36  N   UNL     1       9.646   6.742  -3.383  1.00  0.00    -0.361 N 
ATOM     37  C   UNL     1       7.951   7.231  -2.925  1.00  0.00     0.026 A 
ATOM     38  C   UNL     1       7.827   7.934  -1.347  1.00  0.00     0.001 A 
ATOM     39  H   UNL     1       9.564   6.510  -3.953  1.00  0.00     0.166 HD
ATOM     40  C   UNL     1       7.397   7.639  -2.200  1.00  0.00     0.002 A 
ENDBRANCH  30  31
ENDBRANCH  21  30
ENDBRANCH  19  21
ENDBRANCH   4  17
ENDBRANCH   3   4
ENDBRANCH   2   3
ENDBRANCH   1   2
BRANCH   1  41
ATOM     41  C   UNL     1       8.970  10.975  -3.191  1.00  0.00     0.115 C 
BRANCH  41  42
ATOM     42  N   UNL     1       8.340  11.440  -3.813  1.00  0.00    -0.363 N 
ATOM     43  H   UNL     1       8.524  11.946  -4.120  1.00  0.00     0.162 HD
BRANCH  42  44
ATOM     44  C   UNL     1       7.412  11.090  -3.939  1.00  0.00     0.166 C 
ATOM     45  S   UNL     1       6.733  11.197  -3.212  1.00  0.00    -0.041 S 
BRANCH  44  46
ATOM     46  N   UNL     1       7.162  10.632  -4.792  1.00  0.00    -0.362 N 
ATOM     47  H   UNL     1       7.213  10.016  -4.840  1.00  0.00     0.162 HD
BRANCH  46  48
ATOM     48  C   UNL     1       6.829  11.167  -5.568  1.00  0.00     0.127 C 
BRANCH  48  49
ATOM     49  C   UNL     1       6.894  10.798  -6.496  1.00  0.00     0.143 C 
BRANCH  49  50
ATOM     50  C   UNL     1       7.039  11.413  -7.271  1.00  0.00     0.305 C 
ATOM     51  O   UNL     1       6.722  12.361  -7.223  1.00  0.00    -0.252 OA
BRANCH  50  52
ATOM     52  O   UNL     1       7.501  11.081  -8.093  1.00  0.00    -0.481 OA
ATOM     53  H   UNL     1       7.450  10.485  -8.258  1.00  0.00     0.296 HD
ENDBRANCH  50  52
ENDBRANCH  49  50
ENDBRANCH  48  49
ENDBRANCH  46  48
ENDBRANCH  44  46
ENDBRANCH  42  44
ENDBRANCH  41  42
ENDBRANCH   1  41
TORSDOF 20
ENDMDL
MODEL 6
REMARK VINA RESULT:    -8.079      6.637      9.792
REMARK INTER + INTRA:           3.112
REMARK INTER:                 -17.518
REMARK INTRA:                  20.630
REMARK UNBOUND:                20.401
REMARK SMILES O=C(O)CCNC(=S)NCCCC[C@H](NS(=O)(=O)c1cccc(F)c1)C(=O)N[C@@H](Cc1c[nH]c2ccccc12)C(=O)NC1CCC1
REMARK SMILES IDX 11 1 12 2 13 3 14 4 15 5 16 7 17 8 18 9 19 10 20 11 25 12
REMARK SMILES IDX 21 13 23 14 22 15 24 16 26 17 27 18 28 19 29 21 40 22 41 23
REMARK SMILES IDX 42 24 43 26 44 27 46 28 45 29 30 30 31 31 39 32 32 33 34 34
REMARK SMILES IDX 38 35 33 36 35 37 37 38 36 40 10 41 9 42 7 44 8 45 6 46 5 48
REMARK SMILES IDX 4 49 2 50 1 51 3 52
REMARK H PARENT 15 6 28 20 42 25 33 39 9 43 6 47 3 53
REMARK Flexibility Score: inf
ROOT
ATOM      1  C   UNL     1      13.985  18.817  -6.492  1.00  0.00     0.021 C 
ENDROOT
BRANCH   1   2
ATOM      2  C   UNL     1      14.418  19.066  -5.626  1.00  0.00     0.004 C 
BRANCH   2   3
ATOM      3  C   UNL     1      13.882  19.066  -4.781  1.00  0.00     0.030 C 
BRANCH   3   4
ATOM      4  C   UNL     1      14.343  18.998  -3.896  1.00  0.00     0.159 C 
BRANCH   4   5
ATOM      5  N   UNL     1      14.636  19.826  -3.419  1.00  0.00    -0.199 NA
ATOM      6  H   UNL     1      15.192  20.072  -3.537  1.00  0.00     0.142 HD
BRANCH   5   7
ATOM      7  S   UNL     1      14.030  20.258  -2.751  1.00  0.00     0.241 S 
ATOM      8  O   UNL     1      13.392  20.499  -3.484  1.00  0.00    -0.207 OA
ATOM      9  O   UNL     1      14.666  20.018  -2.019  1.00  0.00    -0.207 OA
BRANCH   7  10
ATOM     10  C   UNL     1      13.424  20.691  -2.084  1.00  0.00     0.085 A 
ATOM     11  C   UNL     1      13.603  21.626  -1.777  1.00  0.00     0.022 A 
ATOM     12  C   UNL     1      12.638  20.189  -1.721  1.00  0.00     0.061 A 
ATOM     13  C   UNL     1      12.997  22.059  -1.110  1.00  0.00     0.004 A 
ATOM     14  C   UNL     1      12.033  20.621  -1.054  1.00  0.00     0.124 A 
ATOM     15  C   UNL     1      12.212  21.557  -0.748  1.00  0.00     0.039 A 
ATOM     16  F   UNL     1      11.247  20.119  -0.692  1.00  0.00    -0.207 F 
ENDBRANCH   7  10
ENDBRANCH   5   7
ENDBRANCH   4   5
BRANCH   4  17
ATOM     17  C   UNL     1      14.511  18.101  -3.489  1.00  0.00     0.238 C 
ATOM     18  O   UNL     1      15.445  17.814  -3.277  1.00  0.00    -0.273 OA
ATOM     19  N   UNL     1      13.744  17.489  -3.291  1.00  0.00    -0.343 N 
ATOM     20  H   UNL     1      13.165  17.667  -3.422  1.00  0.00     0.164 HD
BRANCH  19  21
ATOM     21  C   UNL     1      13.913  16.592  -2.884  1.00  0.00     0.175 C 
BRANCH  21  22
ATOM     22  C   UNL     1      13.979  15.783  -3.467  1.00  0.00     0.243 C 
ATOM     23  O   UNL     1      13.296  15.622  -4.180  1.00  0.00    -0.273 OA
ATOM     24  N   UNL     1      14.729  15.133  -3.339  1.00  0.00    -0.352 N 
ATOM     25  H   UNL     1      15.152  15.232  -2.897  1.00  0.00     0.163 HD
BRANCH  24  26
ATOM     26  C   UNL     1      14.795  14.323  -3.923  1.00  0.00     0.082 C 
ATOM     27  C   UNL     1      14.433  13.392  -3.884  1.00  0.00     0.025 C 
ATOM     28  C   UNL     1      15.250  14.111  -4.787  1.00  0.00     0.025 C 
ATOM     29  C   UNL     1      14.888  13.180  -4.748  1.00  0.00     0.004 C 
ENDBRANCH  24  26
ENDBRANCH  21  22
BRANCH  21  30
ATOM     30  C   UNL     1      14.015  16.504  -1.893  1.00  0.00     0.072 C 
BRANCH  30  31
ATOM     31  C   UNL     1      13.222  16.631  -1.295  1.00  0.00    -0.020 A 
ATOM     32  C   UNL     1      13.234  17.035  -0.387  1.00  0.00     0.003 A 
ATOM     33  C   UNL     1      12.285  16.373  -1.507  1.00  0.00     0.087 A 
ATOM     34  C   UNL     1      12.298  17.027  -0.036  1.00  0.00     0.046 A 
ATOM     35  C   UNL     1      13.975  17.411   0.170  1.00  0.00     0.010 A 
ATOM     36  N   UNL     1      11.716  16.618  -0.729  1.00  0.00    -0.361 N 
ATOM     37  C   UNL     1      12.103  17.396   0.873  1.00  0.00     0.026 A 
ATOM     38  C   UNL     1      13.779  17.779   1.078  1.00  0.00     0.001 A 
ATOM     39  H   UNL     1      11.103  16.531  -0.685  1.00  0.00     0.166 HD
ATOM     40  C   UNL     1      12.843  17.772   1.430  1.00  0.00     0.002 A 
ENDBRANCH  30  31
ENDBRANCH  21  30
ENDBRANCH  19  21
ENDBRANCH   4  17
ENDBRANCH   3   4
ENDBRANCH   2   3
ENDBRANCH   1   2
BRANCH   1  41
ATOM     41  C   UNL     1      14.392  19.110  -7.357  1.00  0.00     0.115 C 
BRANCH  41  42
ATOM     42  N   UNL     1      15.083  18.540  -7.803  1.00  0.00    -0.363 N 
ATOM     43  H   UNL     1      15.454  18.179  -7.463  1.00  0.00     0.162 HD
BRANCH  42  44
ATOM     44  C   UNL     1      15.175  18.553  -8.798  1.00  0.00     0.166 C 
ATOM     45  S   UNL     1      15.717  19.269  -9.241  1.00  0.00    -0.041 S 
BRANCH  44  46
ATOM     46  N   UNL     1      14.727  17.852  -9.352  1.00  0.00    -0.362 N 
ATOM     47  H   UNL     1      14.142  17.687  -9.229  1.00  0.00     0.162 HD
BRANCH  46  48
ATOM     48  C   UNL     1      15.221  17.417 -10.104  1.00  0.00     0.127 C 
BRANCH  48  49
ATOM     49  C   UNL     1      14.847  16.598 -10.541  1.00  0.00     0.143 C 
BRANCH  49  50
ATOM     50  C   UNL     1      15.354  16.148 -11.277  1.00  0.00     0.305 C 
ATOM     51  O   UNL     1      15.167  16.386 -12.230  1.00  0.00    -0.252 OA
BRANCH  50  52
ATOM     52  O   UNL     1      16.046  15.461 -11.060  1.00  0.00    -0.481 OA
ATOM     53  H   UNL     1      16.377  15.508 -10.537  1.00  0.00     0.296 HD
ENDBRANCH  50  52
ENDBRANCH  49  50
ENDBRANCH  48  49
ENDBRANCH  46  48
ENDBRANCH  44  46
ENDBRANCH  42  44
ENDBRANCH  41  42
ENDBRANCH   1  41
TORSDOF 20
ENDMDL
MODEL 7
REMARK VINA RESULT:    -8.010      3.186      7.431
REMARK INTER + INTRA:           3.261
REMARK INTER:                 -17.481
REMARK INTRA:                  20.742
REMARK UNBOUND:                20.401
REMARK SMILES O=C(O)CCNC(=S)NCCCC[C@H](NS(=O)(=O)c1cccc(F)c1)C(=O)N[C@@H](Cc1c[nH]c2ccccc12)C(=O)NC1CCC1
REMARK SMILES IDX 11 1 12 2 13 3 14 4 15 5 16 7 17 8 18 9 19 10 20 11 25 12
REMARK SMILES IDX 21 13 23 14 22 15 24 16 26 17 27 18 28 19 29 21 40 22 41 23
REMARK SMILES IDX 42 24 43 26 44 27 46 28 45 29 30 30 31 31 39 32 32 33 34 34
REMARK SMILES IDX 38 35 33 36 35 37 37 38 36 40 10 41 9 42 7 44 8 45 6 46 5 48
REMARK SMILES IDX 4 49 2 50 1 51 3 52
REMARK H PARENT 15 6 28 20 42 25 33 39 9 43 6 47 3 53
REMARK Flexibility Score: inf
ROOT
ATOM      1  C   UNL     1       8.537   7.429  -1.258  1.00  0.00     0.021 C 
ENDROOT
BRANCH   1   2
ATOM      2  C   UNL     1       9.348   7.960  -1.010  1.00  0.00     0.004 C 
BRANCH   2   3
ATOM      3  C   UNL     1      10.254   7.655  -1.304  1.00  0.00     0.030 C 
BRANCH   3   4
ATOM      4  C   UNL     1      11.069   8.151  -1.005  1.00  0.00     0.159 C 
BRANCH   4   5
ATOM      5  N   UNL     1      11.670   7.752  -0.312  1.00  0.00    -0.199 NA
ATOM      6  H   UNL     1      11.570   7.866   0.289  1.00  0.00     0.142 HD
BRANCH   5   7
ATOM      7  S   UNL     1      12.435   7.169  -0.589  1.00  0.00     0.241 S 
ATOM      8  O   UNL     1      13.071   7.922  -0.416  1.00  0.00    -0.207 OA
ATOM      9  O   UNL     1      11.799   6.418  -0.761  1.00  0.00    -0.207 OA
BRANCH   7  10
ATOM     10  C   UNL     1      13.199   6.588  -0.865  1.00  0.00     0.085 A 
ATOM     11  C   UNL     1      13.339   6.371  -1.832  1.00  0.00     0.022 A 
ATOM     12  C   UNL     1      13.825   6.222  -0.176  1.00  0.00     0.061 A 
ATOM     13  C   UNL     1      14.103   5.789  -2.109  1.00  0.00     0.004 A 
ATOM     14  C   UNL     1      14.589   5.640  -0.453  1.00  0.00     0.124 A 
ATOM     15  C   UNL     1      14.729   5.423  -1.420  1.00  0.00     0.039 A 
ATOM     16  F   UNL     1      15.215   5.274   0.237  1.00  0.00    -0.207 F 
ENDBRANCH   7  10
ENDBRANCH   5   7
ENDBRANCH   4   5
BRANCH   4  17
ATOM     17  C   UNL     1      11.284   9.044  -1.398  1.00  0.00     0.238 C 
ATOM     18  O   UNL     1      11.359   9.847  -0.807  1.00  0.00    -0.273 OA
ATOM     19  N   UNL     1      11.425   9.136  -2.384  1.00  0.00    -0.343 N 
ATOM     20  H   UNL     1      11.379   8.638  -2.752  1.00  0.00     0.164 HD
BRANCH  19  21
ATOM     21  C   UNL     1      11.640  10.029  -2.777  1.00  0.00     0.175 C 
BRANCH  21  22
ATOM     22  C   UNL     1      12.586  10.261  -3.002  1.00  0.00     0.243 C 
ATOM     23  O   UNL     1      13.226   9.543  -3.277  1.00  0.00    -0.273 OA
ATOM     24  N   UNL     1      12.894  11.212  -2.954  1.00  0.00    -0.352 N 
ATOM     25  H   UNL     1      12.498  11.657  -2.784  1.00  0.00     0.163 HD
BRANCH  24  26
ATOM     26  C   UNL     1      13.841  11.443  -3.179  1.00  0.00     0.082 C 
ATOM     27  C   UNL     1      14.690  11.530  -2.660  1.00  0.00     0.025 C 
ATOM     28  C   UNL     1      14.329  11.684  -4.018  1.00  0.00     0.025 C 
ATOM     29  C   UNL     1      15.179  11.770  -3.498  1.00  0.00     0.004 C 
ENDBRANCH  24  26
ENDBRANCH  21  22
BRANCH  21  30
ATOM     30  C   UNL     1      10.910  10.691  -2.945  1.00  0.00     0.072 C 
BRANCH  30  31
ATOM     31  C   UNL     1      10.247  10.529  -3.678  1.00  0.00    -0.020 A 
ATOM     32  C   UNL     1       9.284  10.774  -3.658  1.00  0.00     0.003 A 
ATOM     33  C   UNL     1      10.438  10.095  -4.552  1.00  0.00     0.087 A 
ATOM     34  C   UNL     1       8.878  10.489  -4.527  1.00  0.00     0.046 A 
ATOM     35  C   UNL     1       8.719  11.219  -2.964  1.00  0.00     0.010 A 
ATOM     36  N   UNL     1       9.593  10.071  -5.075  1.00  0.00    -0.361 N 
ATOM     37  C   UNL     1       7.906  10.650  -4.700  1.00  0.00     0.026 A 
ATOM     38  C   UNL     1       7.748  11.380  -3.138  1.00  0.00     0.001 A 
ATOM     39  H   UNL     1       9.525   9.836  -5.645  1.00  0.00     0.166 HD
ATOM     40  C   UNL     1       7.341  11.096  -4.006  1.00  0.00     0.002 A 
ENDBRANCH  30  31
ENDBRANCH  21  30
ENDBRANCH  19  21
ENDBRANCH   4  17
ENDBRANCH   3   4
ENDBRANCH   2   3
ENDBRANCH   1   2
BRANCH   1  41
ATOM     41  C   UNL     1       7.900   7.780  -1.942  1.00  0.00     0.115 C 
BRANCH  41  42
ATOM     42  N   UNL     1       7.141   7.210  -2.259  1.00  0.00    -0.363 N 
ATOM     43  H   UNL     1       6.884   6.796  -1.877  1.00  0.00     0.162 HD
BRANCH  42  44
ATOM     44  C   UNL     1       6.798   7.307  -3.193  1.00  0.00     0.166 C 
ATOM     45  S   UNL     1       5.956   7.820  -3.366  1.00  0.00    -0.041 S 
BRANCH  44  46
ATOM     46  N   UNL     1       7.296   6.893  -3.954  1.00  0.00    -0.362 N 
ATOM     47  H   UNL     1       7.869   7.084  -4.091  1.00  0.00     0.162 HD
BRANCH  46  48
ATOM     48  C   UNL     1       6.868   6.169  -4.496  1.00  0.00     0.127 C 
BRANCH  48  49
ATOM     49  C   UNL     1       7.414   5.644  -5.150  1.00  0.00     0.143 C 
BRANCH  49  50
ATOM     50  C   UNL     1       7.381   4.645  -5.142  1.00  0.00     0.305 C 
ATOM     51  O   UNL     1       6.554   4.170  -5.445  1.00  0.00    -0.252 OA
BRANCH  50  52
ATOM     52  O   UNL     1       8.173   4.121  -4.831  1.00  0.00    -0.481 OA
ATOM     53  H   UNL     1       8.449   4.264  -4.294  1.00  0.00     0.296 HD
ENDBRANCH  50  52
ENDBRANCH  49  50
ENDBRANCH  48  49
ENDBRANCH  46  48
ENDBRANCH  44  46
ENDBRANCH  42  44
ENDBRANCH  41  42
ENDBRANCH   1  41
TORSDOF 20
ENDMDL
MODEL 8
REMARK VINA RESULT:    -8.005      2.866      6.369
REMARK INTER + INTRA:           3.271
REMARK INTER:                 -17.786
REMARK INTRA:                  21.057
REMARK UNBOUND:                20.401
REMARK SMILES O=C(O)CCNC(=S)NCCCC[C@H](NS(=O)(=O)c1cccc(F)c1)C(=O)N[C@@H](Cc1c[nH]c2ccccc12)C(=O)NC1CCC1
REMARK SMILES IDX 11 1 12 2 13 3 14 4 15 5 16 7 17 8 18 9 19 10 20 11 25 12
REMARK SMILES IDX 21 13 23 14 22 15 24 16 26 17 27 18 28 19 29 21 40 22 41 23
REMARK SMILES IDX 42 24 43 26 44 27 46 28 45 29 30 30 31 31 39 32 32 33 34 34
REMARK SMILES IDX 38 35 33 36 35 37 37 38 36 40 10 41 9 42 7 44 8 45 6 46 5 48
REMARK SMILES IDX 4 49 2 50 1 51 3 52
REMARK H PARENT 15 6 28 20 42 25 33 39 9 43 6 47 3 53
REMARK Flexibility Score: inf
ROOT
ATOM      1  C   UNL     1      12.637   7.162  -0.649  1.00  0.00     0.021 C 
ENDROOT
BRANCH   1   2
ATOM      2  C   UNL     1      11.643   7.265  -0.696  1.00  0.00     0.004 C 
BRANCH   2   3
ATOM      3  C   UNL     1      11.212   7.578  -1.543  1.00  0.00     0.030 C 
BRANCH   3   4
ATOM      4  C   UNL     1      10.425   8.193  -1.506  1.00  0.00     0.159 C 
BRANCH   4   5
ATOM      5  N   UNL     1       9.560   7.874  -1.119  1.00  0.00    -0.199 NA
ATOM      6  H   UNL     1       9.507   7.781  -0.508  1.00  0.00     0.142 HD
BRANCH   5   7
ATOM      7  S   UNL     1       8.777   7.705  -1.719  1.00  0.00     0.241 S 
ATOM      8  O   UNL     1       9.323   7.057  -2.250  1.00  0.00    -0.207 OA
ATOM      9  O   UNL     1       8.231   8.353  -1.188  1.00  0.00    -0.207 OA
BRANCH   7  10
ATOM     10  C   UNL     1       7.995   7.536  -2.318  1.00  0.00     0.085 A 
ATOM     11  C   UNL     1       8.029   6.793  -2.987  1.00  0.00     0.022 A 
ATOM     12  C   UNL     1       7.178   8.108  -2.249  1.00  0.00     0.061 A 
ATOM     13  C   UNL     1       7.247   6.623  -3.587  1.00  0.00     0.004 A 
ATOM     14  C   UNL     1       6.396   7.939  -2.848  1.00  0.00     0.124 A 
ATOM     15  C   UNL     1       6.430   7.196  -3.518  1.00  0.00     0.039 A 
ATOM     16  F   UNL     1       5.579   8.512  -2.780  1.00  0.00    -0.207 F 
ENDBRANCH   7  10
ENDBRANCH   5   7
ENDBRANCH   4   5
BRANCH   4  17
ATOM     17  C   UNL     1      10.502   9.126  -1.855  1.00  0.00     0.238 C 
ATOM     18  O   UNL     1      10.341   9.903  -1.248  1.00  0.00    -0.273 OA
ATOM     19  N   UNL     1      10.741   9.283  -2.814  1.00  0.00    -0.343 N 
ATOM     20  H   UNL     1      10.841   8.801  -3.192  1.00  0.00     0.164 HD
BRANCH  19  21
ATOM     21  C   UNL     1      10.818  10.216  -3.164  1.00  0.00     0.175 C 
BRANCH  21  22
ATOM     22  C   UNL     1      11.699  10.688  -3.137  1.00  0.00     0.243 C 
ATOM     23  O   UNL     1      11.731  11.686  -3.073  1.00  0.00    -0.273 OA
ATOM     24  N   UNL     1      12.550  10.163  -3.174  1.00  0.00    -0.352 N 
ATOM     25  H   UNL     1      12.530   9.545  -3.213  1.00  0.00     0.163 HD
BRANCH  24  26
ATOM     26  C   UNL     1      13.431  10.636  -3.147  1.00  0.00     0.082 C 
ATOM     27  C   UNL     1      13.994  11.043  -2.428  1.00  0.00     0.025 C 
ATOM     28  C   UNL     1      14.114  10.896  -3.828  1.00  0.00     0.025 C 
ATOM     29  C   UNL     1      14.677  11.303  -3.109  1.00  0.00     0.004 C 
ENDBRANCH  24  26
ENDBRANCH  21  22
BRANCH  21  30
ATOM     30  C   UNL     1      10.015  10.677  -3.540  1.00  0.00     0.072 C 
BRANCH  30  31
ATOM     31  C   UNL     1       9.528  10.279  -4.318  1.00  0.00    -0.020 A 
ATOM     32  C   UNL     1       8.586  10.465  -4.574  1.00  0.00     0.003 A 
ATOM     33  C   UNL     1       9.902   9.628  -4.969  1.00  0.00     0.087 A 
ATOM     34  C   UNL     1       8.377   9.925  -5.390  1.00  0.00     0.046 A 
ATOM     35  C   UNL     1       7.886  11.057  -4.174  1.00  0.00     0.010 A 
ATOM     36  N   UNL     1       9.192   9.410  -5.630  1.00  0.00    -0.361 N 
ATOM     37  C   UNL     1       7.469   9.976  -5.804  1.00  0.00     0.026 A 
ATOM     38  C   UNL     1       6.978  11.108  -4.588  1.00  0.00     0.001 A 
ATOM     39  H   UNL     1       9.248   9.020  -6.109  1.00  0.00     0.166 HD
ATOM     40  C   UNL     1       6.769  10.568  -5.404  1.00  0.00     0.002 A 
ENDBRANCH  30  31
ENDBRANCH  21  30
ENDBRANCH  19  21
ENDBRANCH   4  17
ENDBRANCH   3   4
ENDBRANCH   2   3
ENDBRANCH   1   2
BRANCH   1  41
ATOM     41  C   UNL     1      13.058   6.281  -0.863  1.00  0.00     0.115 C 
BRANCH  41  42
ATOM     42  N   UNL     1      13.891   5.996  -0.388  1.00  0.00    -0.363 N 
ATOM     43  H   UNL     1      14.025   6.230   0.170  1.00  0.00     0.162 HD
BRANCH  42  44
ATOM     44  C   UNL     1      14.509   5.335  -0.814  1.00  0.00     0.166 C 
ATOM     45  S   UNL     1      14.750   5.427  -1.780  1.00  0.00    -0.041 S 
BRANCH  44  46
ATOM     46  N   UNL     1      14.885   4.583  -0.274  1.00  0.00    -0.362 N 
ATOM     47  H   UNL     1      14.516   4.255   0.101  1.00  0.00     0.162 HD
BRANCH  46  48
ATOM     48  C   UNL     1      15.858   4.358  -0.338  1.00  0.00     0.127 C 
BRANCH  48  49
ATOM     49  C   UNL     1      16.227   3.581   0.172  1.00  0.00     0.143 C 
BRANCH  49  50
ATOM     50  C   UNL     1      17.028   3.702   0.758  1.00  0.00     0.305 C 
ATOM     51  O   UNL     1      16.973   3.481   1.732  1.00  0.00    -0.252 OA
BRANCH  50  52
ATOM     52  O   UNL     1      17.884   4.043   0.370  1.00  0.00    -0.481 OA
ATOM     53  H   UNL     1      18.245   3.666   0.036  1.00  0.00     0.296 HD
ENDBRANCH  50  52
ENDBRANCH  49  50
ENDBRANCH  48  49
ENDBRANCH  46  48
ENDBRANCH  44  46
ENDBRANCH  42  44
ENDBRANCH  41  42
ENDBRANCH   1  41
TORSDOF 20
ENDMDL
MODEL 9
REMARK VINA RESULT:    -7.965      3.172      6.692
REMARK INTER + INTRA:           3.357
REMARK INTER:                 -17.262
REMARK INTRA:                  20.619
REMARK UNBOUND:                20.401
REMARK SMILES O=C(O)CCNC(=S)NCCCC[C@H](NS(=O)(=O)c1cccc(F)c1)C(=O)N[C@@H](Cc1c[nH]c2ccccc12)C(=O)NC1CCC1
REMARK SMILES IDX 11 1 12 2 13 3 14 4 15 5 16 7 17 8 18 9 19 10 20 11 25 12
REMARK SMILES IDX 21 13 23 14 22 15 24 16 26 17 27 18 28 19 29 21 40 22 41 23
REMARK SMILES IDX 42 24 43 26 44 27 46 28 45 29 30 30 31 31 39 32 32 33 34 34
REMARK SMILES IDX 38 35 33 36 35 37 37 38 36 40 10 41 9 42 7 44 8 45 6 46 5 48
REMARK SMILES IDX 4 49 2 50 1 51 3 52
REMARK H PARENT 15 6 28 20 42 25 33 39 9 43 6 47 3 53
REMARK Flexibility Score: inf
ROOT
ATOM      1  C   UNL     1       8.520   7.569  -1.513  1.00  0.00     0.021 C 
ENDROOT
BRANCH   1   2
ATOM      2  C   UNL     1       9.330   7.843  -0.994  1.00  0.00     0.004 C 
BRANCH   2   3
ATOM      3  C   UNL     1      10.242   7.590  -1.320  1.00  0.00     0.030 C 
BRANCH   3   4
ATOM      4  C   UNL     1      11.040   8.119  -1.033  1.00  0.00     0.159 C 
BRANCH   4   5
ATOM      5  N   UNL     1      11.673   7.743  -0.357  1.00  0.00    -0.199 NA
ATOM      6  H   UNL     1      11.609   7.887   0.243  1.00  0.00     0.142 HD
BRANCH   5   7
ATOM      7  S   UNL     1      12.411   7.134  -0.647  1.00  0.00     0.241 S 
ATOM      8  O   UNL     1      11.758   6.381  -0.729  1.00  0.00    -0.207 OA
ATOM      9  O   UNL     1      13.064   7.887  -0.566  1.00  0.00    -0.207 OA
BRANCH   7  10
ATOM     10  C   UNL     1      13.148   6.525  -0.938  1.00  0.00     0.085 A 
ATOM     11  C   UNL     1      13.497   6.573  -1.875  1.00  0.00     0.022 A 
ATOM     12  C   UNL     1      13.538   5.867  -0.294  1.00  0.00     0.061 A 
ATOM     13  C   UNL     1      14.234   5.964  -2.166  1.00  0.00     0.004 A 
ATOM     14  C   UNL     1      14.275   5.258  -0.584  1.00  0.00     0.124 A 
ATOM     15  C   UNL     1      14.624   5.306  -1.521  1.00  0.00     0.039 A 
ATOM     16  F   UNL     1      14.665   4.600   0.061  1.00  0.00    -0.207 F 
ENDBRANCH   7  10
ENDBRANCH   5   7
ENDBRANCH   4   5
BRANCH   4  17
ATOM     17  C   UNL     1      11.206   9.025  -1.423  1.00  0.00     0.238 C 
ATOM     18  O   UNL     1      11.280   9.822  -0.824  1.00  0.00    -0.273 OA
ATOM     19  N   UNL     1      11.297   9.134  -2.413  1.00  0.00    -0.343 N 
ATOM     20  H   UNL     1      11.250   8.640  -2.785  1.00  0.00     0.164 HD
BRANCH  19  21
ATOM     21  C   UNL     1      11.462  10.040  -2.803  1.00  0.00     0.175 C 
BRANCH  21  22
ATOM     22  C   UNL     1      12.396  10.331  -3.010  1.00  0.00     0.243 C 
ATOM     23  O   UNL     1      13.035   9.693  -3.440  1.00  0.00    -0.273 OA
ATOM     24  N   UNL     1      12.692  11.260  -2.787  1.00  0.00    -0.352 N 
ATOM     25  H   UNL     1      12.296  11.655  -2.520  1.00  0.00     0.163 HD
BRANCH  24  26
ATOM     26  C   UNL     1      13.627  11.551  -2.994  1.00  0.00     0.082 C 
ATOM     27  C   UNL     1      14.062  12.052  -3.741  1.00  0.00     0.025 C 
ATOM     28  C   UNL     1      14.512  11.461  -2.539  1.00  0.00     0.025 C 
ATOM     29  C   UNL     1      14.947  11.962  -3.287  1.00  0.00     0.004 C 
ENDBRANCH  24  26
ENDBRANCH  21  22
BRANCH  21  30
ATOM     30  C   UNL     1      10.695  10.654  -2.985  1.00  0.00     0.072 C 
BRANCH  30  31
ATOM     31  C   UNL     1      10.122  10.512  -3.793  1.00  0.00    -0.020 A 
ATOM     32  C   UNL     1       9.458  11.155  -4.158  1.00  0.00     0.003 A 
ATOM     33  C   UNL     1      10.118   9.703  -4.371  1.00  0.00     0.087 A 
ATOM     34  C   UNL     1       9.041  10.740  -4.967  1.00  0.00     0.046 A 
ATOM     35  C   UNL     1       9.174  12.067  -3.862  1.00  0.00     0.010 A 
ATOM     36  N   UNL     1       9.452   9.844  -5.095  1.00  0.00    -0.361 N 
ATOM     37  C   UNL     1       8.341  11.237  -5.479  1.00  0.00     0.026 A 
ATOM     38  C   UNL     1       8.474  12.564  -4.374  1.00  0.00     0.001 A 
ATOM     39  H   UNL     1       9.316   9.442  -5.548  1.00  0.00     0.166 HD
ATOM     40  C   UNL     1       8.057  12.149  -5.183  1.00  0.00     0.002 A 
ENDBRANCH  30  31
ENDBRANCH  21  30
ENDBRANCH  19  21
ENDBRANCH   4  17
ENDBRANCH   3   4
ENDBRANCH   2   3
ENDBRANCH   1   2
BRANCH   1  41
ATOM     41  C   UNL     1       7.759   8.206  -1.624  1.00  0.00     0.115 C 
BRANCH  41  42
ATOM     42  N   UNL     1       7.444   8.454  -2.541  1.00  0.00    -0.363 N 
ATOM     43  H   UNL     1       7.780   8.298  -3.037  1.00  0.00     0.162 HD
BRANCH  42  44
ATOM     44  C   UNL     1       6.586   8.955  -2.657  1.00  0.00     0.166 C 
ATOM     45  S   UNL     1       5.878   8.599  -3.268  1.00  0.00    -0.041 S 
BRANCH  44  46
ATOM     46  N   UNL     1       6.435   9.810  -2.163  1.00  0.00    -0.362 N 
ATOM     47  H   UNL     1       6.688   9.894  -1.603  1.00  0.00     0.162 HD
BRANCH  46  48
ATOM     48  C   UNL     1       5.876  10.532  -2.571  1.00  0.00     0.127 C 
BRANCH  48  49
ATOM     49  C   UNL     1       5.536  11.283  -2.004  1.00  0.00     0.143 C 
BRANCH  49  50
ATOM     50  C   UNL     1       5.527  12.216  -2.363  1.00  0.00     0.305 C 
ATOM     51  O   UNL     1       6.146  12.904  -1.982  1.00  0.00    -0.252 OA
BRANCH  50  52
ATOM     52  O   UNL     1       4.900  12.462  -3.101  1.00  0.00    -0.481 OA
ATOM     53  H   UNL     1       4.302  12.300  -3.066  1.00  0.00     0.296 HD
ENDBRANCH  50  52
ENDBRANCH  49  50
ENDBRANCH  48  49
ENDBRANCH  46  48
ENDBRANCH  44  46
ENDBRANCH  42  44
ENDBRANCH  41  42
ENDBRANCH   1  41
TORSDOF 20
ENDMDL
