MODEL 1
REMARK VINA RESULT:    -8.787      0.000      0.000
REMARK INTER + INTRA:         -34.787
REMARK INTER:                 -28.051
REMARK INTRA:                  -6.736
REMARK UNBOUND:                -6.736
REMARK SMILES C=C(N[C@H](CCCCNC(=O)C[C@@H](Sc1ccc2ccccc2c1)C(=O)O)C(=O)N[C@H](CCC(=O)O)C(=O)N[C@H](Cc1ccc(O)cc1)C(=O)NCC(=O)N[C@@H](C(N)=O)C(C)C)[C@@H](CCC)NC(=O)[C@@H](NC(=O)CNC)C(C)C
REMARK SMILES IDX 4 1 3 2 2 4 1 5 63 6 64 7 65 8 66 9 67 10 68 11 69 13 70 14
REMARK SMILES IDX 71 15 72 16 73 18 74 19 75 20 76 21 77 23 78 24 79 25 5 26
REMARK SMILES IDX 6 27 7 28 8 29 9 30 10 31 11 33 12 34 13 35 14 36 15 37
REMARK SMILES IDX 16 38 24 39 17 40 23 41 18 42 22 43 19 44 21 45 20 46 25 47
REMARK SMILES IDX 26 48 27 49 28 51 29 52 30 53 31 55 32 56 33 57 34 58 35 59
REMARK SMILES IDX 36 60 37 62 38 63 39 64 40 66 41 67 42 68 43 69 48 70 44 71
REMARK SMILES IDX 47 72 45 73 46 74 49 76 50 77 51 78 52 80 53 81 54 82 55 83
REMARK SMILES IDX 56 85 57 86 58 87 59 88 60 91 61 92 62 93
REMARK H PARENT 3 3 67 12 71 17 75 22 9 32 27 50 30 54 36 61 39 65 46 75 51 79
REMARK H PARENT 55 84 58 89 58 90
REMARK Flexibility Score: inf
ROOT
ATOM      1  C   UNL     1      29.853  32.845  55.376  1.00  0.00     0.168 C 
ENDROOT
BRANCH   1   2
ATOM      2  N   UNL     1      28.474  32.596  55.900  1.00  0.00    -0.376 N 
ATOM      3  H   UNL     1      28.528  32.241  56.871  1.00  0.00     0.161 HD
BRANCH   2   4
ATOM      4  C   UNL     1      27.258  33.277  55.761  1.00  0.00     0.027 C 
ATOM      5  C   UNL     1      26.696  33.528  54.564  1.00  0.00     0.034 C 
BRANCH   4   6
ATOM      6  C   UNL     1      26.424  33.656  57.036  1.00  0.00     0.128 C 
BRANCH   6   7
ATOM      7  C   UNL     1      25.337  34.732  56.731  1.00  0.00     0.031 C 
BRANCH   7   8
ATOM      8  C   UNL     1      24.613  35.258  57.986  1.00  0.00    -0.001 C 
ATOM      9  C   UNL     1      24.712  36.772  58.150  1.00  0.00     0.004 C 
ENDBRANCH   7   8
ENDBRANCH   6   7
BRANCH   6  10
ATOM     10  N   UNL     1      25.937  32.572  57.907  1.00  0.00    -0.346 N 
ATOM     11  C   UNL     1      26.555  31.652  58.713  1.00  0.00     0.243 C 
ATOM     12  H   UNL     1      24.920  32.553  57.990  1.00  0.00     0.164 HD
ATOM     13  O   UNL     1      27.771  31.636  58.934  1.00  0.00    -0.273 OA
BRANCH  11  14
ATOM     14  C   UNL     1      25.603  30.613  59.409  1.00  0.00     0.173 C 
BRANCH  14  15
ATOM     15  N   UNL     1      26.372  29.506  59.996  1.00  0.00    -0.343 N 
ATOM     16  C   UNL     1      25.853  28.274  60.302  1.00  0.00     0.234 C 
ATOM     17  H   UNL     1      27.322  29.679  60.323  1.00  0.00     0.164 HD
ATOM     18  O   UNL     1      24.648  28.020  60.166  1.00  0.00    -0.274 OA
BRANCH  16  19
ATOM     19  C   UNL     1      26.863  27.211  60.742  1.00  0.00     0.181 C 
BRANCH  19  20
ATOM     20  N   UNL     1      27.501  27.576  62.020  1.00  0.00    -0.311 NA
ATOM     21  C   UNL     1      28.118  26.389  62.621  1.00  0.00     0.101 C 
ATOM     22  H   UNL     1      26.778  27.912  62.659  1.00  0.00     0.122 HD
ENDBRANCH  19  20
ENDBRANCH  16  19
ENDBRANCH  14  15
BRANCH  14  23
ATOM     23  C   UNL     1      24.558  31.240  60.384  1.00  0.00     0.015 C 
ATOM     24  C   UNL     1      25.221  31.740  61.675  1.00  0.00     0.010 C 
ATOM     25  C   UNL     1      23.792  32.423  59.766  1.00  0.00     0.010 C 
ENDBRANCH  14  23
ENDBRANCH  11  14
ENDBRANCH   6  10
ENDBRANCH   4   6
ENDBRANCH   2   4
ENDBRANCH   1   2
BRANCH   1  26
ATOM     26  C   UNL     1      30.308  31.982  54.181  1.00  0.00     0.035 C 
BRANCH  26  27
ATOM     27  C   UNL     1      29.428  31.965  52.925  1.00  0.00     0.004 C 
BRANCH  27  28
ATOM     28  C   UNL     1      29.256  33.324  52.240  1.00  0.00     0.021 C 
BRANCH  28  29
ATOM     29  C   UNL     1      29.752  33.263  50.795  1.00  0.00     0.116 C 
BRANCH  29  30
ATOM     30  N   UNL     1      31.191  33.379  50.700  1.00  0.00    -0.356 N 
ATOM     31  C   UNL     1      31.771  34.447  50.045  1.00  0.00     0.221 C 
ATOM     32  H   UNL     1      31.778  32.671  51.125  1.00  0.00     0.163 HD
ATOM     33  O   UNL     1      31.128  35.308  49.456  1.00  0.00    -0.275 OA
BRANCH  31  34
ATOM     34  C   UNL     1      33.281  34.436  50.084  1.00  0.00     0.126 C 
BRANCH  34  35
ATOM     35  C   UNL     1      33.899  34.527  48.690  1.00  0.00     0.170 C 
BRANCH  35  36
ATOM     36  S   UNL     1      34.417  36.235  48.174  1.00  0.00    -0.110 SA
BRANCH  36  37
ATOM     37  C   UNL     1      33.765  36.376  46.520  1.00  0.00     0.009 A 
ATOM     38  C   UNL     1      33.164  35.275  45.907  1.00  0.00     0.016 A 
ATOM     39  C   UNL     1      33.709  37.624  45.891  1.00  0.00     0.023 A 
ATOM     40  C   UNL     1      32.505  35.417  44.682  1.00  0.00     0.010 A 
ATOM     41  C   UNL     1      33.045  37.784  44.664  1.00  0.00    -0.017 A 
ATOM     42  C   UNL     1      32.417  36.668  44.061  1.00  0.00    -0.018 A 
ATOM     43  C   UNL     1      32.961  39.036  44.033  1.00  0.00     0.009 A 
ATOM     44  C   UNL     1      31.697  36.843  42.870  1.00  0.00     0.009 A 
ATOM     45  C   UNL     1      32.241  39.190  42.846  1.00  0.00     0.001 A 
ATOM     46  C   UNL     1      31.600  38.096  42.273  1.00  0.00     0.001 A 
ENDBRANCH  36  37
ENDBRANCH  35  36
BRANCH  35  47
ATOM     47  C   UNL     1      35.051  33.540  48.545  1.00  0.00     0.317 C 
ATOM     48  O   UNL     1      35.569  33.240  47.478  1.00  0.00    -0.251 OA
BRANCH  47  49
ATOM     49  O   UNL     1      35.530  33.064  49.720  1.00  0.00    -0.480 OA
ATOM     50  H   UNL     1      35.375  33.705  50.446  1.00  0.00     0.296 HD
ENDBRANCH  47  49
ENDBRANCH  35  47
ENDBRANCH  34  35
ENDBRANCH  31  34
ENDBRANCH  29  30
ENDBRANCH  28  29
ENDBRANCH  27  28
ENDBRANCH  26  27
ENDBRANCH   1  26
BRANCH   1  51
ATOM     51  C   UNL     1      30.985  32.854  56.461  1.00  0.00     0.243 C 
ATOM     52  O   UNL     1      32.171  32.949  56.144  1.00  0.00    -0.273 OA
ATOM     53  N   UNL     1      30.604  32.658  57.760  1.00  0.00    -0.343 N 
ATOM     54  H   UNL     1      29.603  32.787  57.872  1.00  0.00     0.164 HD
BRANCH  53  55
ATOM     55  C   UNL     1      31.399  32.786  58.992  1.00  0.00     0.172 C 
BRANCH  55  56
ATOM     56  C   UNL     1      31.011  31.796  60.100  1.00  0.00     0.047 C 
BRANCH  56  57
ATOM     57  C   UNL     1      30.976  30.347  59.647  1.00  0.00     0.125 C 
BRANCH  57  58
ATOM     58  C   UNL     1      30.179  29.506  60.608  1.00  0.00     0.303 C 
ATOM     59  O   UNL     1      30.532  28.425  61.025  1.00  0.00    -0.252 OA
BRANCH  58  60
ATOM     60  O   UNL     1      28.997  30.055  60.980  1.00  0.00    -0.481 OA
ATOM     61  H   UNL     1      28.552  30.496  60.237  1.00  0.00     0.296 HD
ENDBRANCH  58  60
ENDBRANCH  57  58
ENDBRANCH  56  57
ENDBRANCH  55  56
BRANCH  55  62
ATOM     62  C   UNL     1      31.630  34.154  59.690  1.00  0.00     0.243 C 
ATOM     63  O   UNL     1      32.307  34.228  60.719  1.00  0.00    -0.273 OA
ATOM     64  N   UNL     1      30.914  35.224  59.245  1.00  0.00    -0.342 N 
ATOM     65  H   UNL     1      30.274  35.071  58.465  1.00  0.00     0.164 HD
BRANCH  64  66
ATOM     66  C   UNL     1      30.759  36.475  60.005  1.00  0.00     0.175 C 
BRANCH  66  67
ATOM     67  C   UNL     1      29.436  37.187  59.641  1.00  0.00     0.070 C 
BRANCH  67  68
ATOM     68  C   UNL     1      28.168  36.600  60.239  1.00  0.00    -0.045 A 
ATOM     69  C   UNL     1      27.843  35.243  60.094  1.00  0.00     0.007 A 
ATOM     70  C   UNL     1      27.327  37.405  61.027  1.00  0.00     0.007 A 
ATOM     71  C   UNL     1      26.711  34.705  60.722  1.00  0.00     0.046 A 
ATOM     72  C   UNL     1      26.197  36.870  61.653  1.00  0.00     0.046 A 
ATOM     73  C   UNL     1      25.901  35.523  61.501  1.00  0.00     0.115 A 
BRANCH  73  74
ATOM     74  O   UNL     1      24.803  35.039  62.148  1.00  0.00    -0.508 OA
ATOM     75  H   UNL     1      25.078  34.320  62.738  1.00  0.00     0.293 HD
ENDBRANCH  73  74
ENDBRANCH  67  68
ENDBRANCH  66  67
BRANCH  66  76
ATOM     76  C   UNL     1      31.969  37.433  59.771  1.00  0.00     0.243 C 
ATOM     77  O   UNL     1      33.134  37.042  59.714  1.00  0.00    -0.273 OA
ATOM     78  N   UNL     1      31.636  38.738  59.477  1.00  0.00    -0.345 N 
ATOM     79  H   UNL     1      30.658  38.951  59.285  1.00  0.00     0.164 HD
BRANCH  78  80
ATOM     80  C   UNL     1      32.615  39.758  59.154  1.00  0.00     0.216 C 
BRANCH  80  81
ATOM     81  C   UNL     1      31.923  41.060  58.713  1.00  0.00     0.240 C 
ATOM     82  O   UNL     1      32.463  42.166  58.776  1.00  0.00    -0.273 OA
ATOM     83  N   UNL     1      30.642  40.899  58.229  1.00  0.00    -0.343 N 
ATOM     84  H   UNL     1      30.340  39.976  57.939  1.00  0.00     0.164 HD
BRANCH  83  85
ATOM     85  C   UNL     1      29.839  42.047  57.783  1.00  0.00     0.173 C 
BRANCH  85  86
ATOM     86  C   UNL     1      29.181  41.656  56.444  1.00  0.00     0.240 C 
ATOM     87  N   UNL     1      30.057  41.333  55.445  1.00  0.00    -0.368 N 
ATOM     88  O   UNL     1      27.970  41.547  56.274  1.00  0.00    -0.273 OA
ATOM     89  H   UNL     1      31.012  41.073  55.684  1.00  0.00     0.159 HD
ATOM     90  H   UNL     1      29.665  40.964  54.590  1.00  0.00     0.159 HD
ENDBRANCH  85  86
BRANCH  85  91
ATOM     91  C   UNL     1      28.779  42.441  58.837  1.00  0.00     0.015 C 
ATOM     92  C   UNL     1      28.712  41.409  59.970  1.00  0.00     0.010 C 
ATOM     93  C   UNL     1      29.080  43.816  59.448  1.00  0.00     0.010 C 
ENDBRANCH  85  91
ENDBRANCH  83  85
ENDBRANCH  80  81
ENDBRANCH  78  80
ENDBRANCH  66  76
ENDBRANCH  64  66
ENDBRANCH  55  62
ENDBRANCH  53  55
ENDBRANCH   1  51
TORSDOF 39
ENDMDL
MODEL 2
REMARK VINA RESULT:    -8.627      3.908     11.205
REMARK INTER + INTRA:         -34.275
REMARK INTER:                 -29.014
REMARK INTRA:                  -5.261
REMARK UNBOUND:                -6.736
REMARK SMILES C=C(N[C@H](CCCCNC(=O)C[C@@H](Sc1ccc2ccccc2c1)C(=O)O)C(=O)N[C@H](CCC(=O)O)C(=O)N[C@H](Cc1ccc(O)cc1)C(=O)NCC(=O)N[C@@H](C(N)=O)C(C)C)[C@@H](CCC)NC(=O)[C@@H](NC(=O)CNC)C(C)C
REMARK SMILES IDX 4 1 3 2 2 4 1 5 63 6 64 7 65 8 66 9 67 10 68 11 69 13 70 14
REMARK SMILES IDX 71 15 72 16 73 18 74 19 75 20 76 21 77 23 78 24 79 25 5 26
REMARK SMILES IDX 6 27 7 28 8 29 9 30 10 31 11 33 12 34 13 35 14 36 15 37
REMARK SMILES IDX 16 38 24 39 17 40 23 41 18 42 22 43 19 44 21 45 20 46 25 47
REMARK SMILES IDX 26 48 27 49 28 51 29 52 30 53 31 55 32 56 33 57 34 58 35 59
REMARK SMILES IDX 36 60 37 62 38 63 39 64 40 66 41 67 42 68 43 69 48 70 44 71
REMARK SMILES IDX 47 72 45 73 46 74 49 76 50 77 51 78 52 80 53 81 54 82 55 83
REMARK SMILES IDX 56 85 57 86 58 87 59 88 60 91 61 92 62 93
REMARK H PARENT 3 3 67 12 71 17 75 22 9 32 27 50 30 54 36 61 39 65 46 75 51 79
REMARK H PARENT 55 84 58 89 58 90
REMARK Flexibility Score: inf
ROOT
ATOM      1  C   UNL     1      32.874  36.646  59.037  1.00  0.00     0.168 C 
ENDROOT
BRANCH   1   2
ATOM      2  N   UNL     1      33.387  35.650  58.045  1.00  0.00    -0.376 N 
ATOM      3  H   UNL     1      33.649  36.134  57.168  1.00  0.00     0.161 HD
BRANCH   2   4
ATOM      4  C   UNL     1      34.189  34.507  58.160  1.00  0.00     0.027 C 
ATOM      5  C   UNL     1      35.244  34.439  58.992  1.00  0.00     0.034 C 
BRANCH   4   6
ATOM      6  C   UNL     1      33.786  33.192  57.405  1.00  0.00     0.128 C 
BRANCH   6   7
ATOM      7  C   UNL     1      33.399  32.043  58.386  1.00  0.00     0.031 C 
BRANCH   7   8
ATOM      8  C   UNL     1      31.879  31.869  58.572  1.00  0.00    -0.001 C 
ATOM      9  C   UNL     1      31.508  31.135  59.857  1.00  0.00     0.004 C 
ENDBRANCH   7   8
ENDBRANCH   6   7
BRANCH   6  10
ATOM     10  N   UNL     1      32.880  33.294  56.247  1.00  0.00    -0.346 N 
ATOM     11  C   UNL     1      32.771  32.610  55.063  1.00  0.00     0.243 C 
ATOM     12  H   UNL     1      32.122  33.961  56.391  1.00  0.00     0.164 HD
ATOM     13  O   UNL     1      33.448  31.616  54.777  1.00  0.00    -0.273 OA
BRANCH  11  14
ATOM     14  C   UNL     1      31.669  33.139  54.075  1.00  0.00     0.173 C 
BRANCH  14  15
ATOM     15  N   UNL     1      32.186  33.206  52.700  1.00  0.00    -0.343 N 
ATOM     16  C   UNL     1      32.116  34.315  51.896  1.00  0.00     0.234 C 
ATOM     17  H   UNL     1      32.507  32.351  52.247  1.00  0.00     0.164 HD
ATOM     18  O   UNL     1      31.535  35.348  52.256  1.00  0.00    -0.274 OA
BRANCH  16  19
ATOM     19  C   UNL     1      32.868  34.227  50.565  1.00  0.00     0.181 C 
BRANCH  19  20
ATOM     20  N   UNL     1      32.036  33.600  49.522  1.00  0.00    -0.311 NA
ATOM     21  C   UNL     1      32.565  33.943  48.197  1.00  0.00     0.101 C 
ATOM     22  H   UNL     1      31.090  33.980  49.590  1.00  0.00     0.122 HD
ENDBRANCH  19  20
ENDBRANCH  16  19
ENDBRANCH  14  15
BRANCH  14  23
ATOM     23  C   UNL     1      30.290  32.419  54.195  1.00  0.00     0.015 C 
ATOM     24  C   UNL     1      29.475  32.957  55.379  1.00  0.00     0.010 C 
ATOM     25  C   UNL     1      29.424  32.563  52.931  1.00  0.00     0.010 C 
ENDBRANCH  14  23
ENDBRANCH  11  14
ENDBRANCH   6  10
ENDBRANCH   4   6
ENDBRANCH   2   4
ENDBRANCH   1   2
BRANCH   1  26
ATOM     26  C   UNL     1      31.494  36.358  59.661  1.00  0.00     0.035 C 
BRANCH  26  27
ATOM     27  C   UNL     1      30.928  34.938  59.542  1.00  0.00     0.004 C 
BRANCH  27  28
ATOM     28  C   UNL     1      29.424  34.864  59.265  1.00  0.00     0.021 C 
BRANCH  28  29
ATOM     29  C   UNL     1      28.705  36.063  59.886  1.00  0.00     0.116 C 
BRANCH  29  30
ATOM     30  N   UNL     1      27.286  36.062  59.606  1.00  0.00    -0.356 N 
ATOM     31  C   UNL     1      26.522  37.190  59.828  1.00  0.00     0.221 C 
ATOM     32  H   UNL     1      26.851  35.225  59.239  1.00  0.00     0.163 HD
ATOM     33  O   UNL     1      26.965  38.218  60.327  1.00  0.00    -0.275 OA
BRANCH  31  34
ATOM     34  C   UNL     1      25.072  37.029  59.436  1.00  0.00     0.126 C 
BRANCH  34  35
ATOM     35  C   UNL     1      24.838  35.788  58.577  1.00  0.00     0.170 C 
BRANCH  35  36
ATOM     36  S   UNL     1      23.719  34.512  59.334  1.00  0.00    -0.110 SA
BRANCH  36  37
ATOM     37  C   UNL     1      24.856  33.263  59.908  1.00  0.00     0.009 A 
ATOM     38  C   UNL     1      25.754  33.552  60.937  1.00  0.00     0.016 A 
ATOM     39  C   UNL     1      24.748  31.949  59.444  1.00  0.00     0.023 A 
ATOM     40  C   UNL     1      26.532  32.538  61.506  1.00  0.00     0.010 A 
ATOM     41  C   UNL     1      25.517  30.918  60.008  1.00  0.00    -0.017 A 
ATOM     42  C   UNL     1      26.408  31.215  61.068  1.00  0.00    -0.018 A 
ATOM     43  C   UNL     1      25.402  29.590  59.568  1.00  0.00     0.009 A 
ATOM     44  C   UNL     1      27.126  30.174  61.676  1.00  0.00     0.009 A 
ATOM     45  C   UNL     1      26.126  28.568  60.185  1.00  0.00     0.001 A 
ATOM     46  C   UNL     1      26.977  28.860  61.246  1.00  0.00     0.001 A 
ENDBRANCH  36  37
ENDBRANCH  35  36
BRANCH  35  47
ATOM     47  C   UNL     1      24.357  36.178  57.185  1.00  0.00     0.317 C 
ATOM     48  O   UNL     1      24.413  37.312  56.730  1.00  0.00    -0.251 OA
BRANCH  47  49
ATOM     49  O   UNL     1      23.925  35.137  56.431  1.00  0.00    -0.480 OA
ATOM     50  H   UNL     1      23.240  34.621  56.908  1.00  0.00     0.296 HD
ENDBRANCH  47  49
ENDBRANCH  35  47
ENDBRANCH  34  35
ENDBRANCH  31  34
ENDBRANCH  29  30
ENDBRANCH  28  29
ENDBRANCH  27  28
ENDBRANCH  26  27
ENDBRANCH   1  26
BRANCH   1  51
ATOM     51  C   UNL     1      32.920  38.140  58.562  1.00  0.00     0.243 C 
ATOM     52  O   UNL     1      33.904  38.593  57.975  1.00  0.00    -0.273 OA
ATOM     53  N   UNL     1      31.865  38.938  58.911  1.00  0.00    -0.343 N 
ATOM     54  H   UNL     1      31.071  38.382  59.215  1.00  0.00     0.164 HD
BRANCH  53  55
ATOM     55  C   UNL     1      31.547  40.305  58.472  1.00  0.00     0.172 C 
BRANCH  55  56
ATOM     56  C   UNL     1      32.335  41.404  59.202  1.00  0.00     0.047 C 
BRANCH  56  57
ATOM     57  C   UNL     1      31.776  42.801  58.999  1.00  0.00     0.125 C 
BRANCH  57  58
ATOM     58  C   UNL     1      30.973  43.235  60.196  1.00  0.00     0.303 C 
ATOM     59  O   UNL     1      31.083  42.755  61.302  1.00  0.00    -0.252 OA
BRANCH  58  60
ATOM     60  O   UNL     1      30.085  44.225  59.940  1.00  0.00    -0.481 OA
ATOM     61  H   UNL     1      29.168  43.938  60.088  1.00  0.00     0.296 HD
ENDBRANCH  58  60
ENDBRANCH  57  58
ENDBRANCH  56  57
ENDBRANCH  55  56
BRANCH  55  62
ATOM     62  C   UNL     1      30.086  40.820  58.356  1.00  0.00     0.243 C 
ATOM     63  O   UNL     1      29.215  40.418  59.131  1.00  0.00    -0.273 OA
ATOM     64  N   UNL     1      29.762  41.570  57.265  1.00  0.00    -0.342 N 
ATOM     65  H   UNL     1      30.502  41.766  56.591  1.00  0.00     0.164 HD
BRANCH  64  66
ATOM     66  C   UNL     1      28.377  41.830  56.838  1.00  0.00     0.175 C 
BRANCH  66  67
ATOM     67  C   UNL     1      28.249  41.764  55.299  1.00  0.00     0.070 C 
BRANCH  67  68
ATOM     68  C   UNL     1      26.965  41.160  54.754  1.00  0.00    -0.045 A 
ATOM     69  C   UNL     1      25.703  41.590  55.192  1.00  0.00     0.007 A 
ATOM     70  C   UNL     1      27.023  40.201  53.727  1.00  0.00     0.007 A 
ATOM     71  C   UNL     1      24.531  41.077  54.617  1.00  0.00     0.046 A 
ATOM     72  C   UNL     1      25.855  39.688  53.155  1.00  0.00     0.046 A 
ATOM     73  C   UNL     1      24.618  40.134  53.600  1.00  0.00     0.115 A 
BRANCH  73  74
ATOM     74  O   UNL     1      23.507  39.624  52.998  1.00  0.00    -0.508 OA
ATOM     75  H   UNL     1      23.390  38.704  53.283  1.00  0.00     0.293 HD
ENDBRANCH  73  74
ENDBRANCH  67  68
ENDBRANCH  66  67
BRANCH  66  76
ATOM     76  C   UNL     1      27.874  43.211  57.362  1.00  0.00     0.243 C 
ATOM     77  O   UNL     1      27.609  43.425  58.544  1.00  0.00    -0.273 OA
ATOM     78  N   UNL     1      27.891  44.232  56.436  1.00  0.00    -0.345 N 
ATOM     79  H   UNL     1      28.359  44.064  55.545  1.00  0.00     0.164 HD
BRANCH  78  80
ATOM     80  C   UNL     1      27.533  45.602  56.750  1.00  0.00     0.216 C 
BRANCH  80  81
ATOM     81  C   UNL     1      28.751  46.532  56.613  1.00  0.00     0.240 C 
ATOM     82  O   UNL     1      28.815  47.444  55.788  1.00  0.00    -0.273 OA
ATOM     83  N   UNL     1      29.777  46.274  57.498  1.00  0.00    -0.343 N 
ATOM     84  H   UNL     1      29.586  45.716  58.322  1.00  0.00     0.164 HD
BRANCH  83  85
ATOM     85  C   UNL     1      31.018  47.062  57.486  1.00  0.00     0.173 C 
BRANCH  85  86
ATOM     86  C   UNL     1      31.334  47.446  58.946  1.00  0.00     0.240 C 
ATOM     87  N   UNL     1      31.998  48.632  59.098  1.00  0.00    -0.368 N 
ATOM     88  O   UNL     1      30.960  46.808  59.925  1.00  0.00    -0.273 OA
ATOM     89  H   UNL     1      31.979  49.314  58.342  1.00  0.00     0.159 HD
ATOM     90  H   UNL     1      32.122  48.972  60.041  1.00  0.00     0.159 HD
ENDBRANCH  85  86
BRANCH  85  91
ATOM     91  C   UNL     1      32.184  46.273  56.847  1.00  0.00     0.015 C 
ATOM     92  C   UNL     1      32.915  47.115  55.794  1.00  0.00     0.010 C 
ATOM     93  C   UNL     1      33.203  45.825  57.904  1.00  0.00     0.010 C 
ENDBRANCH  85  91
ENDBRANCH  83  85
ENDBRANCH  80  81
ENDBRANCH  78  80
ENDBRANCH  66  76
ENDBRANCH  64  66
ENDBRANCH  55  62
ENDBRANCH  53  55
ENDBRANCH   1  51
TORSDOF 39
ENDMDL
MODEL 3
REMARK VINA RESULT:    -8.491      3.751     10.961
REMARK INTER + INTRA:         -33.842
REMARK INTER:                 -26.242
REMARK INTRA:                  -7.600
REMARK UNBOUND:                -6.736
REMARK SMILES C=C(N[C@H](CCCCNC(=O)C[C@@H](Sc1ccc2ccccc2c1)C(=O)O)C(=O)N[C@H](CCC(=O)O)C(=O)N[C@H](Cc1ccc(O)cc1)C(=O)NCC(=O)N[C@@H](C(N)=O)C(C)C)[C@@H](CCC)NC(=O)[C@@H](NC(=O)CNC)C(C)C
REMARK SMILES IDX 4 1 3 2 2 4 1 5 63 6 64 7 65 8 66 9 67 10 68 11 69 13 70 14
REMARK SMILES IDX 71 15 72 16 73 18 74 19 75 20 76 21 77 23 78 24 79 25 5 26
REMARK SMILES IDX 6 27 7 28 8 29 9 30 10 31 11 33 12 34 13 35 14 36 15 37
REMARK SMILES IDX 16 38 24 39 17 40 23 41 18 42 22 43 19 44 21 45 20 46 25 47
REMARK SMILES IDX 26 48 27 49 28 51 29 52 30 53 31 55 32 56 33 57 34 58 35 59
REMARK SMILES IDX 36 60 37 62 38 63 39 64 40 66 41 67 42 68 43 69 48 70 44 71
REMARK SMILES IDX 47 72 45 73 46 74 49 76 50 77 51 78 52 80 53 81 54 82 55 83
REMARK SMILES IDX 56 85 57 86 58 87 59 88 60 91 61 92 62 93
REMARK H PARENT 3 3 67 12 71 17 75 22 9 32 27 50 30 54 36 61 39 65 46 75 51 79
REMARK H PARENT 55 84 58 89 58 90
REMARK Flexibility Score: inf
ROOT
ATOM      1  C   UNL     1      31.610  34.200  58.334  1.00  0.00     0.168 C 
ENDROOT
BRANCH   1   2
ATOM      2  N   UNL     1      32.952  33.546  58.229  1.00  0.00    -0.376 N 
ATOM      3  H   UNL     1      33.627  34.202  57.799  1.00  0.00     0.161 HD
BRANCH   2   4
ATOM      4  C   UNL     1      33.667  32.685  59.071  1.00  0.00     0.027 C 
ATOM      5  C   UNL     1      33.498  32.665  60.406  1.00  0.00     0.034 C 
BRANCH   4   6
ATOM      6  C   UNL     1      34.613  31.595  58.453  1.00  0.00     0.128 C 
BRANCH   6   7
ATOM      7  C   UNL     1      34.545  30.246  59.231  1.00  0.00     0.031 C 
BRANCH   7   8
ATOM      8  C   UNL     1      33.384  29.332  58.795  1.00  0.00    -0.001 C 
ATOM      9  C   UNL     1      32.711  28.613  59.960  1.00  0.00     0.004 C 
ENDBRANCH   7   8
ENDBRANCH   6   7
BRANCH   6  10
ATOM     10  N   UNL     1      34.621  31.419  56.989  1.00  0.00    -0.346 N 
ATOM     11  C   UNL     1      34.990  32.219  55.939  1.00  0.00     0.243 C 
ATOM     12  H   UNL     1      34.376  30.472  56.700  1.00  0.00     0.164 HD
ATOM     13  O   UNL     1      35.522  33.326  56.070  1.00  0.00    -0.273 OA
BRANCH  11  14
ATOM     14  C   UNL     1      34.742  31.616  54.509  1.00  0.00     0.173 C 
BRANCH  14  15
ATOM     15  N   UNL     1      33.836  32.472  53.728  1.00  0.00    -0.343 N 
ATOM     16  C   UNL     1      32.586  32.859  54.137  1.00  0.00     0.234 C 
ATOM     17  H   UNL     1      34.078  32.701  52.764  1.00  0.00     0.164 HD
ATOM     18  O   UNL     1      32.087  32.448  55.194  1.00  0.00    -0.274 OA
BRANCH  16  19
ATOM     19  C   UNL     1      31.881  33.891  53.253  1.00  0.00     0.181 C 
BRANCH  19  20
ATOM     20  N   UNL     1      31.467  33.298  51.967  1.00  0.00    -0.311 NA
ATOM     21  C   UNL     1      31.986  34.109  50.861  1.00  0.00     0.101 C 
ATOM     22  H   UNL     1      30.447  33.314  51.917  1.00  0.00     0.122 HD
ENDBRANCH  19  20
ENDBRANCH  16  19
ENDBRANCH  14  15
BRANCH  14  23
ATOM     23  C   UNL     1      36.038  31.206  53.743  1.00  0.00     0.015 C 
ATOM     24  C   UNL     1      36.668  32.404  53.019  1.00  0.00     0.010 C 
ATOM     25  C   UNL     1      37.114  30.600  54.661  1.00  0.00     0.010 C 
ENDBRANCH  14  23
ENDBRANCH  11  14
ENDBRANCH   6  10
ENDBRANCH   4   6
ENDBRANCH   2   4
ENDBRANCH   1   2
BRANCH   1  26
ATOM     26  C   UNL     1      31.365  35.090  59.570  1.00  0.00     0.035 C 
BRANCH  26  27
ATOM     27  C   UNL     1      31.640  36.594  59.442  1.00  0.00     0.004 C 
BRANCH  27  28
ATOM     28  C   UNL     1      33.120  36.985  59.486  1.00  0.00     0.021 C 
BRANCH  28  29
ATOM     29  C   UNL     1      33.284  38.488  59.257  1.00  0.00     0.116 C 
BRANCH  29  30
ATOM     30  N   UNL     1      32.179  39.058  58.518  1.00  0.00    -0.356 N 
ATOM     31  C   UNL     1      31.756  40.349  58.765  1.00  0.00     0.221 C 
ATOM     32  H   UNL     1      31.715  38.504  57.808  1.00  0.00     0.163 HD
ATOM     33  O   UNL     1      32.227  41.056  59.647  1.00  0.00    -0.275 OA
BRANCH  31  34
ATOM     34  C   UNL     1      30.625  40.799  57.870  1.00  0.00     0.126 C 
BRANCH  34  35
ATOM     35  C   UNL     1      30.075  42.166  58.273  1.00  0.00     0.170 C 
BRANCH  35  36
ATOM     36  S   UNL     1      29.703  43.309  56.857  1.00  0.00    -0.110 SA
BRANCH  36  37
ATOM     37  C   UNL     1      28.038  42.863  56.400  1.00  0.00     0.009 A 
ATOM     38  C   UNL     1      26.983  43.744  56.648  1.00  0.00     0.016 A 
ATOM     39  C   UNL     1      27.800  41.706  55.653  1.00  0.00     0.023 A 
ATOM     40  C   UNL     1      25.704  43.479  56.148  1.00  0.00     0.010 A 
ATOM     41  C   UNL     1      26.524  41.428  55.139  1.00  0.00    -0.017 A 
ATOM     42  C   UNL     1      25.465  42.338  55.373  1.00  0.00    -0.018 A 
ATOM     43  C   UNL     1      26.276  40.281  54.368  1.00  0.00     0.009 A 
ATOM     44  C   UNL     1      24.207  42.094  54.802  1.00  0.00     0.009 A 
ATOM     45  C   UNL     1      25.016  40.054  53.809  1.00  0.00     0.001 A 
ATOM     46  C   UNL     1      23.987  40.967  54.017  1.00  0.00     0.001 A 
ENDBRANCH  36  37
ENDBRANCH  35  36
BRANCH  35  47
ATOM     47  C   UNL     1      28.862  42.012  59.183  1.00  0.00     0.317 C 
ATOM     48  O   UNL     1      28.308  42.941  59.754  1.00  0.00    -0.251 OA
BRANCH  47  49
ATOM     49  O   UNL     1      28.374  40.749  59.255  1.00  0.00    -0.480 OA
ATOM     50  H   UNL     1      29.070  40.093  59.039  1.00  0.00     0.296 HD
ENDBRANCH  47  49
ENDBRANCH  35  47
ENDBRANCH  34  35
ENDBRANCH  31  34
ENDBRANCH  29  30
ENDBRANCH  28  29
ENDBRANCH  27  28
ENDBRANCH  26  27
ENDBRANCH   1  26
BRANCH   1  51
ATOM     51  C   UNL     1      30.386  33.238  58.145  1.00  0.00     0.243 C 
ATOM     52  O   UNL     1      30.013  32.495  59.054  1.00  0.00    -0.273 OA
ATOM     53  N   UNL     1      29.813  33.195  56.904  1.00  0.00    -0.343 N 
ATOM     54  H   UNL     1      30.104  33.987  56.339  1.00  0.00     0.164 HD
BRANCH  53  55
ATOM     55  C   UNL     1      28.569  32.536  56.476  1.00  0.00     0.172 C 
BRANCH  55  56
ATOM     56  C   UNL     1      28.251  32.696  54.981  1.00  0.00     0.047 C 
BRANCH  56  57
ATOM     57  C   UNL     1      28.086  31.379  54.242  1.00  0.00     0.125 C 
BRANCH  57  58
ATOM     58  C   UNL     1      29.050  31.289  53.089  1.00  0.00     0.303 C 
ATOM     59  O   UNL     1      28.813  31.680  51.969  1.00  0.00    -0.252 OA
BRANCH  58  60
ATOM     60  O   UNL     1      30.236  30.714  53.401  1.00  0.00    -0.481 OA
ATOM     61  H   UNL     1      30.635  30.266  52.637  1.00  0.00     0.296 HD
ENDBRANCH  58  60
ENDBRANCH  57  58
ENDBRANCH  56  57
ENDBRANCH  55  56
BRANCH  55  62
ATOM     62  C   UNL     1      27.226  32.731  57.231  1.00  0.00     0.243 C 
ATOM     63  O   UNL     1      26.463  33.652  56.929  1.00  0.00    -0.273 OA
ATOM     64  N   UNL     1      27.010  31.980  58.347  1.00  0.00    -0.342 N 
ATOM     65  H   UNL     1      27.738  31.319  58.618  1.00  0.00     0.164 HD
BRANCH  64  66
ATOM     66  C   UNL     1      25.974  32.286  59.347  1.00  0.00     0.175 C 
BRANCH  66  67
ATOM     67  C   UNL     1      26.586  32.978  60.587  1.00  0.00     0.070 C 
BRANCH  67  68
ATOM     68  C   UNL     1      26.677  34.495  60.536  1.00  0.00    -0.045 A 
ATOM     69  C   UNL     1      25.777  35.312  61.238  1.00  0.00     0.007 A 
ATOM     70  C   UNL     1      27.730  35.111  59.838  1.00  0.00     0.007 A 
ATOM     71  C   UNL     1      25.928  36.706  61.244  1.00  0.00     0.046 A 
ATOM     72  C   UNL     1      27.880  36.501  59.842  1.00  0.00     0.046 A 
ATOM     73  C   UNL     1      26.983  37.288  60.550  1.00  0.00     0.115 A 
BRANCH  73  74
ATOM     74  O   UNL     1      27.181  38.636  60.546  1.00  0.00    -0.508 OA
ATOM     75  H   UNL     1      27.373  38.928  61.451  1.00  0.00     0.293 HD
ENDBRANCH  73  74
ENDBRANCH  67  68
ENDBRANCH  66  67
BRANCH  66  76
ATOM     76  C   UNL     1      25.203  30.998  59.775  1.00  0.00     0.243 C 
ATOM     77  O   UNL     1      24.287  31.006  60.595  1.00  0.00    -0.273 OA
ATOM     78  N   UNL     1      25.513  29.863  59.057  1.00  0.00    -0.345 N 
ATOM     79  H   UNL     1      26.089  29.966  58.222  1.00  0.00     0.164 HD
BRANCH  78  80
ATOM     80  C   UNL     1      24.851  28.588  59.254  1.00  0.00     0.216 C 
BRANCH  80  81
ATOM     81  C   UNL     1      25.540  27.779  60.367  1.00  0.00     0.240 C 
ATOM     82  O   UNL     1      24.922  27.113  61.199  1.00  0.00    -0.273 OA
ATOM     83  N   UNL     1      26.917  27.847  60.362  1.00  0.00    -0.343 N 
ATOM     84  H   UNL     1      27.390  28.166  59.524  1.00  0.00     0.164 HD
BRANCH  83  85
ATOM     85  C   UNL     1      27.725  27.144  61.370  1.00  0.00     0.173 C 
BRANCH  85  86
ATOM     86  C   UNL     1      28.190  25.814  60.743  1.00  0.00     0.240 C 
ATOM     87  N   UNL     1      27.259  24.812  60.762  1.00  0.00    -0.368 N 
ATOM     88  O   UNL     1      29.270  25.653  60.183  1.00  0.00    -0.273 OA
ATOM     89  H   UNL     1      26.276  25.048  60.885  1.00  0.00     0.159 HD
ATOM     90  H   UNL     1      27.485  23.965  60.262  1.00  0.00     0.159 HD
ENDBRANCH  85  86
BRANCH  85  91
ATOM     91  C   UNL     1      28.928  28.000  61.829  1.00  0.00     0.015 C 
ATOM     92  C   UNL     1      28.981  29.334  61.075  1.00  0.00     0.010 C 
ATOM     93  C   UNL     1      28.865  28.294  63.335  1.00  0.00     0.010 C 
ENDBRANCH  85  91
ENDBRANCH  83  85
ENDBRANCH  80  81
ENDBRANCH  78  80
ENDBRANCH  66  76
ENDBRANCH  64  66
ENDBRANCH  55  62
ENDBRANCH  53  55
ENDBRANCH   1  51
TORSDOF 39
ENDMDL
MODEL 4
REMARK VINA RESULT:    -8.490      4.864     11.769
REMARK INTER + INTRA:         -33.836
REMARK INTER:                 -27.149
REMARK INTRA:                  -6.687
REMARK UNBOUND:                -6.736
REMARK SMILES C=C(N[C@H](CCCCNC(=O)C[C@@H](Sc1ccc2ccccc2c1)C(=O)O)C(=O)N[C@H](CCC(=O)O)C(=O)N[C@H](Cc1ccc(O)cc1)C(=O)NCC(=O)N[C@@H](C(N)=O)C(C)C)[C@@H](CCC)NC(=O)[C@@H](NC(=O)CNC)C(C)C
REMARK SMILES IDX 4 1 3 2 2 4 1 5 63 6 64 7 65 8 66 9 67 10 68 11 69 13 70 14
REMARK SMILES IDX 71 15 72 16 73 18 74 19 75 20 76 21 77 23 78 24 79 25 5 26
REMARK SMILES IDX 6 27 7 28 8 29 9 30 10 31 11 33 12 34 13 35 14 36 15 37
REMARK SMILES IDX 16 38 24 39 17 40 23 41 18 42 22 43 19 44 21 45 20 46 25 47
REMARK SMILES IDX 26 48 27 49 28 51 29 52 30 53 31 55 32 56 33 57 34 58 35 59
REMARK SMILES IDX 36 60 37 62 38 63 39 64 40 66 41 67 42 68 43 69 48 70 44 71
REMARK SMILES IDX 47 72 45 73 46 74 49 76 50 77 51 78 52 80 53 81 54 82 55 83
REMARK SMILES IDX 56 85 57 86 58 87 59 88 60 91 61 92 62 93
REMARK H PARENT 3 3 67 12 71 17 75 22 9 32 27 50 30 54 36 61 39 65 46 75 51 79
REMARK H PARENT 55 84 58 89 58 90
REMARK Flexibility Score: inf
ROOT
ATOM      1  C   UNL     1      32.393  37.565  59.389  1.00  0.00     0.168 C 
ENDROOT
BRANCH   1   2
ATOM      2  N   UNL     1      33.684  37.931  60.049  1.00  0.00    -0.376 N 
ATOM      3  H   UNL     1      34.316  37.110  60.059  1.00  0.00     0.161 HD
BRANCH   2   4
ATOM      4  C   UNL     1      34.479  39.084  60.029  1.00  0.00     0.027 C 
ATOM      5  C   UNL     1      34.538  39.947  61.059  1.00  0.00     0.034 C 
BRANCH   4   6
ATOM      6  C   UNL     1      35.456  39.337  58.827  1.00  0.00     0.128 C 
BRANCH   6   7
ATOM      7  C   UNL     1      35.816  38.021  58.072  1.00  0.00     0.031 C 
BRANCH   7   8
ATOM      8  C   UNL     1      37.239  37.506  58.362  1.00  0.00    -0.001 C 
ATOM      9  C   UNL     1      37.365  36.810  59.714  1.00  0.00     0.004 C 
ENDBRANCH   7   8
ENDBRANCH   6   7
BRANCH   6  10
ATOM     10  N   UNL     1      35.180  40.467  57.921  1.00  0.00    -0.346 N 
ATOM     11  C   UNL     1      35.687  41.735  57.803  1.00  0.00     0.243 C 
ATOM     12  H   UNL     1      34.531  40.228  57.171  1.00  0.00     0.164 HD
ATOM     13  O   UNL     1      36.639  42.161  58.468  1.00  0.00    -0.273 OA
BRANCH  11  14
ATOM     14  C   UNL     1      35.011  42.636  56.708  1.00  0.00     0.173 C 
BRANCH  14  15
ATOM     15  N   UNL     1      34.932  41.929  55.421  1.00  0.00    -0.343 N 
ATOM     16  C   UNL     1      35.851  42.047  54.410  1.00  0.00     0.234 C 
ATOM     17  H   UNL     1      34.085  41.411  55.190  1.00  0.00     0.164 HD
ATOM     18  O   UNL     1      36.806  42.834  54.483  1.00  0.00    -0.274 OA
BRANCH  16  19
ATOM     19  C   UNL     1      35.674  41.093  53.227  1.00  0.00     0.181 C 
BRANCH  19  20
ATOM     20  N   UNL     1      34.610  41.560  52.318  1.00  0.00    -0.311 NA
ATOM     21  C   UNL     1      35.191  42.412  51.276  1.00  0.00     0.101 C 
ATOM     22  H   UNL     1      33.951  42.126  52.856  1.00  0.00     0.122 HD
ENDBRANCH  19  20
ENDBRANCH  16  19
ENDBRANCH  14  15
BRANCH  14  23
ATOM     23  C   UNL     1      33.666  43.295  57.148  1.00  0.00     0.015 C 
ATOM     24  C   UNL     1      33.647  44.798  56.839  1.00  0.00     0.010 C 
ATOM     25  C   UNL     1      32.437  42.665  56.471  1.00  0.00     0.010 C 
ENDBRANCH  14  23
ENDBRANCH  11  14
ENDBRANCH   6  10
ENDBRANCH   4   6
ENDBRANCH   2   4
ENDBRANCH   1   2
BRANCH   1  26
ATOM     26  C   UNL     1      31.246  38.592  59.489  1.00  0.00     0.035 C 
BRANCH  26  27
ATOM     27  C   UNL     1      31.360  39.886  58.673  1.00  0.00     0.004 C 
BRANCH  27  28
ATOM     28  C   UNL     1      30.208  40.876  58.871  1.00  0.00     0.021 C 
BRANCH  28  29
ATOM     29  C   UNL     1      30.463  41.758  60.094  1.00  0.00     0.116 C 
BRANCH  29  30
ATOM     30  N   UNL     1      30.245  43.161  59.818  1.00  0.00    -0.356 N 
ATOM     31  C   UNL     1      28.978  43.638  59.545  1.00  0.00     0.221 C 
ATOM     32  H   UNL     1      31.030  43.800  59.832  1.00  0.00     0.163 HD
ATOM     33  O   UNL     1      27.992  42.918  59.452  1.00  0.00    -0.275 OA
BRANCH  31  34
ATOM     34  C   UNL     1      28.925  45.132  59.330  1.00  0.00     0.126 C 
BRANCH  34  35
ATOM     35  C   UNL     1      29.730  45.571  58.109  1.00  0.00     0.170 C 
BRANCH  35  36
ATOM     36  S   UNL     1      28.733  46.368  56.759  1.00  0.00    -0.110 SA
BRANCH  36  37
ATOM     37  C   UNL     1      27.397  45.214  56.505  1.00  0.00     0.009 A 
ATOM     38  C   UNL     1      26.074  45.660  56.518  1.00  0.00     0.016 A 
ATOM     39  C   UNL     1      27.670  43.894  56.136  1.00  0.00     0.023 A 
ATOM     40  C   UNL     1      25.032  44.800  56.157  1.00  0.00     0.010 A 
ATOM     41  C   UNL     1      26.636  43.019  55.765  1.00  0.00    -0.017 A 
ATOM     42  C   UNL     1      25.299  43.486  55.757  1.00  0.00    -0.018 A 
ATOM     43  C   UNL     1      26.897  41.697  55.371  1.00  0.00     0.009 A 
ATOM     44  C   UNL     1      24.274  42.632  55.322  1.00  0.00     0.009 A 
ATOM     45  C   UNL     1      25.864  40.862  54.942  1.00  0.00     0.001 A 
ATOM     46  C   UNL     1      24.556  41.335  54.907  1.00  0.00     0.001 A 
ENDBRANCH  36  37
ENDBRANCH  35  36
BRANCH  35  47
ATOM     47  C   UNL     1      30.897  46.461  58.523  1.00  0.00     0.317 C 
ATOM     48  O   UNL     1      31.285  47.429  57.884  1.00  0.00    -0.251 OA
BRANCH  47  49
ATOM     49  O   UNL     1      31.439  46.147  59.726  1.00  0.00    -0.480 OA
ATOM     50  H   UNL     1      30.747  45.849  60.354  1.00  0.00     0.296 HD
ENDBRANCH  47  49
ENDBRANCH  35  47
ENDBRANCH  34  35
ENDBRANCH  31  34
ENDBRANCH  29  30
ENDBRANCH  28  29
ENDBRANCH  27  28
ENDBRANCH  26  27
ENDBRANCH   1  26
BRANCH   1  51
ATOM     51  C   UNL     1      31.840  36.143  59.751  1.00  0.00     0.243 C 
ATOM     52  O   UNL     1      30.663  35.980  60.074  1.00  0.00    -0.273 OA
ATOM     53  N   UNL     1      32.741  35.114  59.784  1.00  0.00    -0.343 N 
ATOM     54  H   UNL     1      33.606  35.370  59.318  1.00  0.00     0.164 HD
BRANCH  53  55
ATOM     55  C   UNL     1      32.498  33.669  59.917  1.00  0.00     0.172 C 
BRANCH  55  56
ATOM     56  C   UNL     1      33.772  32.826  60.080  1.00  0.00     0.047 C 
BRANCH  56  57
ATOM     57  C   UNL     1      35.046  33.550  59.680  1.00  0.00     0.125 C 
BRANCH  57  58
ATOM     58  C   UNL     1      35.234  33.515  58.186  1.00  0.00     0.303 C 
ATOM     59  O   UNL     1      35.599  32.541  57.568  1.00  0.00    -0.252 OA
BRANCH  58  60
ATOM     60  O   UNL     1      34.965  34.688  57.565  1.00  0.00    -0.481 OA
ATOM     61  H   UNL     1      35.764  35.086  57.179  1.00  0.00     0.296 HD
ENDBRANCH  58  60
ENDBRANCH  57  58
ENDBRANCH  56  57
ENDBRANCH  55  56
BRANCH  55  62
ATOM     62  C   UNL     1      31.582  32.889  58.935  1.00  0.00     0.243 C 
ATOM     63  O   UNL     1      32.036  32.428  57.884  1.00  0.00    -0.273 OA
ATOM     64  N   UNL     1      30.241  32.897  59.174  1.00  0.00    -0.342 N 
ATOM     65  H   UNL     1      29.913  33.404  59.997  1.00  0.00     0.164 HD
BRANCH  64  66
ATOM     66  C   UNL     1      29.232  32.514  58.174  1.00  0.00     0.175 C 
BRANCH  66  67
ATOM     67  C   UNL     1      29.104  33.593  57.073  1.00  0.00     0.070 C 
BRANCH  67  68
ATOM     68  C   UNL     1      28.946  33.087  55.648  1.00  0.00    -0.045 A 
ATOM     69  C   UNL     1      30.042  32.628  54.902  1.00  0.00     0.007 A 
ATOM     70  C   UNL     1      27.665  32.996  55.075  1.00  0.00     0.007 A 
ATOM     71  C   UNL     1      29.863  32.089  53.620  1.00  0.00     0.046 A 
ATOM     72  C   UNL     1      27.486  32.461  53.796  1.00  0.00     0.046 A 
ATOM     73  C   UNL     1      28.585  32.006  53.081  1.00  0.00     0.115 A 
BRANCH  73  74
ATOM     74  O   UNL     1      28.361  31.471  51.847  1.00  0.00    -0.508 OA
ATOM     75  H   UNL     1      28.135  32.186  51.231  1.00  0.00     0.293 HD
ENDBRANCH  73  74
ENDBRANCH  67  68
ENDBRANCH  66  67
BRANCH  66  76
ATOM     76  C   UNL     1      27.844  32.256  58.840  1.00  0.00     0.243 C 
ATOM     77  O   UNL     1      26.990  31.520  58.348  1.00  0.00    -0.273 OA
ATOM     78  N   UNL     1      27.690  32.789  60.102  1.00  0.00    -0.345 N 
ATOM     79  H   UNL     1      28.515  33.170  60.565  1.00  0.00     0.164 HD
BRANCH  78  80
ATOM     80  C   UNL     1      26.504  32.594  60.912  1.00  0.00     0.216 C 
BRANCH  80  81
ATOM     81  C   UNL     1      25.885  33.945  61.312  1.00  0.00     0.240 C 
ATOM     82  O   UNL     1      25.425  34.172  62.432  1.00  0.00    -0.273 OA
ATOM     83  N   UNL     1      25.888  34.900  60.316  1.00  0.00    -0.343 N 
ATOM     84  H   UNL     1      26.505  34.777  59.521  1.00  0.00     0.164 HD
BRANCH  83  85
ATOM     85  C   UNL     1      25.318  36.238  60.532  1.00  0.00     0.173 C 
BRANCH  85  86
ATOM     86  C   UNL     1      26.490  37.194  60.835  1.00  0.00     0.240 C 
ATOM     87  N   UNL     1      27.661  36.889  60.199  1.00  0.00    -0.368 N 
ATOM     88  O   UNL     1      26.395  38.209  61.518  1.00  0.00    -0.273 OA
ATOM     89  H   UNL     1      27.639  36.289  59.375  1.00  0.00     0.159 HD
ATOM     90  H   UNL     1      28.417  37.553  60.282  1.00  0.00     0.159 HD
ENDBRANCH  85  86
BRANCH  85  91
ATOM     91  C   UNL     1      24.507  36.713  59.304  1.00  0.00     0.015 C 
ATOM     92  C   UNL     1      25.025  36.067  58.013  1.00  0.00     0.010 C 
ATOM     93  C   UNL     1      23.017  36.377  59.454  1.00  0.00     0.010 C 
ENDBRANCH  85  91
ENDBRANCH  83  85
ENDBRANCH  80  81
ENDBRANCH  78  80
ENDBRANCH  66  76
ENDBRANCH  64  66
ENDBRANCH  55  62
ENDBRANCH  53  55
ENDBRANCH   1  51
TORSDOF 39
ENDMDL
MODEL 5
REMARK VINA RESULT:    -8.380      3.276     10.806
REMARK INTER + INTRA:         -33.486
REMARK INTER:                 -28.252
REMARK INTRA:                  -5.233
REMARK UNBOUND:                -6.736
REMARK SMILES C=C(N[C@H](CCCCNC(=O)C[C@@H](Sc1ccc2ccccc2c1)C(=O)O)C(=O)N[C@H](CCC(=O)O)C(=O)N[C@H](Cc1ccc(O)cc1)C(=O)NCC(=O)N[C@@H](C(N)=O)C(C)C)[C@@H](CCC)NC(=O)[C@@H](NC(=O)CNC)C(C)C
REMARK SMILES IDX 4 1 3 2 2 4 1 5 63 6 64 7 65 8 66 9 67 10 68 11 69 13 70 14
REMARK SMILES IDX 71 15 72 16 73 18 74 19 75 20 76 21 77 23 78 24 79 25 5 26
REMARK SMILES IDX 6 27 7 28 8 29 9 30 10 31 11 33 12 34 13 35 14 36 15 37
REMARK SMILES IDX 16 38 24 39 17 40 23 41 18 42 22 43 19 44 21 45 20 46 25 47
REMARK SMILES IDX 26 48 27 49 28 51 29 52 30 53 31 55 32 56 33 57 34 58 35 59
REMARK SMILES IDX 36 60 37 62 38 63 39 64 40 66 41 67 42 68 43 69 48 70 44 71
REMARK SMILES IDX 47 72 45 73 46 74 49 76 50 77 51 78 52 80 53 81 54 82 55 83
REMARK SMILES IDX 56 85 57 86 58 87 59 88 60 91 61 92 62 93
REMARK H PARENT 3 3 67 12 71 17 75 22 9 32 27 50 30 54 36 61 39 65 46 75 51 79
REMARK H PARENT 55 84 58 89 58 90
REMARK Flexibility Score: inf
ROOT
ATOM      1  C   UNL     1      33.716  34.837  59.067  1.00  0.00     0.168 C 
ENDROOT
BRANCH   1   2
ATOM      2  N   UNL     1      32.460  34.476  59.795  1.00  0.00    -0.376 N 
ATOM      3  H   UNL     1      32.613  34.557  60.816  1.00  0.00     0.161 HD
BRANCH   2   4
ATOM      4  C   UNL     1      31.103  34.717  59.545  1.00  0.00     0.027 C 
ATOM      5  C   UNL     1      30.551  35.940  59.635  1.00  0.00     0.034 C 
BRANCH   4   6
ATOM      6  C   UNL     1      30.192  33.559  59.004  1.00  0.00     0.128 C 
BRANCH   6   7
ATOM      7  C   UNL     1      30.953  32.201  58.917  1.00  0.00     0.031 C 
BRANCH   7   8
ATOM      8  C   UNL     1      30.336  31.085  59.783  1.00  0.00    -0.001 C 
ATOM      9  C   UNL     1      31.353  30.384  60.680  1.00  0.00     0.004 C 
ENDBRANCH   7   8
ENDBRANCH   6   7
BRANCH   6  10
ATOM     10  N   UNL     1      28.828  33.424  59.546  1.00  0.00    -0.346 N 
ATOM     11  C   UNL     1      27.605  33.157  58.986  1.00  0.00     0.243 C 
ATOM     12  H   UNL     1      28.798  33.456  60.565  1.00  0.00     0.164 HD
ATOM     13  O   UNL     1      27.442  32.866  57.796  1.00  0.00    -0.273 OA
BRANCH  11  14
ATOM     14  C   UNL     1      26.385  33.190  59.975  1.00  0.00     0.173 C 
BRANCH  14  15
ATOM     15  N   UNL     1      25.414  34.220  59.578  1.00  0.00    -0.343 N 
ATOM     16  C   UNL     1      25.375  35.493  60.089  1.00  0.00     0.234 C 
ATOM     17  H   UNL     1      24.630  33.960  58.980  1.00  0.00     0.164 HD
ATOM     18  O   UNL     1      26.135  35.855  60.998  1.00  0.00    -0.274 OA
BRANCH  16  19
ATOM     19  C   UNL     1      24.398  36.458  59.413  1.00  0.00     0.181 C 
BRANCH  19  20
ATOM     20  N   UNL     1      24.334  37.743  60.133  1.00  0.00    -0.311 NA
ATOM     21  C   UNL     1      23.126  37.784  60.963  1.00  0.00     0.101 C 
ATOM     22  H   UNL     1      24.268  38.496  59.446  1.00  0.00     0.122 HD
ENDBRANCH  19  20
ENDBRANCH  16  19
ENDBRANCH  14  15
BRANCH  14  23
ATOM     23  C   UNL     1      25.743  31.797  60.262  1.00  0.00     0.015 C 
ATOM     24  C   UNL     1      25.796  31.449  61.756  1.00  0.00     0.010 C 
ATOM     25  C   UNL     1      24.274  31.707  59.815  1.00  0.00     0.010 C 
ENDBRANCH  14  23
ENDBRANCH  11  14
ENDBRANCH   6  10
ENDBRANCH   4   6
ENDBRANCH   2   4
ENDBRANCH   1   2
BRANCH   1  26
ATOM     26  C   UNL     1      33.708  36.166  58.283  1.00  0.00     0.035 C 
BRANCH  26  27
ATOM     27  C   UNL     1      34.295  37.409  58.963  1.00  0.00     0.004 C 
BRANCH  27  28
ATOM     28  C   UNL     1      33.270  38.298  59.675  1.00  0.00     0.021 C 
BRANCH  28  29
ATOM     29  C   UNL     1      32.475  39.119  58.659  1.00  0.00     0.116 C 
BRANCH  29  30
ATOM     30  N   UNL     1      32.113  40.425  59.166  1.00  0.00    -0.356 N 
ATOM     31  C   UNL     1      30.797  40.732  59.451  1.00  0.00     0.221 C 
ATOM     32  H   UNL     1      32.835  41.118  59.319  1.00  0.00     0.163 HD
ATOM     33  O   UNL     1      29.865  39.968  59.234  1.00  0.00    -0.275 OA
BRANCH  31  34
ATOM     34  C   UNL     1      30.606  42.119  60.017  1.00  0.00     0.126 C 
BRANCH  34  35
ATOM     35  C   UNL     1      30.594  43.193  58.931  1.00  0.00     0.170 C 
BRANCH  35  36
ATOM     36  S   UNL     1      28.979  44.090  58.735  1.00  0.00    -0.110 SA
BRANCH  36  37
ATOM     37  C   UNL     1      28.210  43.250  57.363  1.00  0.00     0.009 A 
ATOM     38  C   UNL     1      28.879  42.209  56.714  1.00  0.00     0.016 A 
ATOM     39  C   UNL     1      26.879  43.518  57.032  1.00  0.00     0.023 A 
ATOM     40  C   UNL     1      28.223  41.437  55.750  1.00  0.00     0.010 A 
ATOM     41  C   UNL     1      26.205  42.748  56.071  1.00  0.00    -0.017 A 
ATOM     42  C   UNL     1      26.882  41.680  55.435  1.00  0.00    -0.018 A 
ATOM     43  C   UNL     1      24.861  42.992  55.745  1.00  0.00     0.009 A 
ATOM     44  C   UNL     1      26.187  40.868  54.524  1.00  0.00     0.009 A 
ATOM     45  C   UNL     1      24.187  42.175  54.835  1.00  0.00     0.001 A 
ATOM     46  C   UNL     1      24.848  41.107  54.235  1.00  0.00     0.001 A 
ENDBRANCH  36  37
ENDBRANCH  35  36
BRANCH  35  47
ATOM     47  C   UNL     1      31.743  44.174  59.131  1.00  0.00     0.317 C 
ATOM     48  O   UNL     1      32.877  44.001  58.706  1.00  0.00    -0.251 OA
BRANCH  47  49
ATOM     49  O   UNL     1      31.393  45.324  59.758  1.00  0.00    -0.480 OA
ATOM     50  H   UNL     1      31.477  46.092  59.153  1.00  0.00     0.296 HD
ENDBRANCH  47  49
ENDBRANCH  35  47
ENDBRANCH  34  35
ENDBRANCH  31  34
ENDBRANCH  29  30
ENDBRANCH  28  29
ENDBRANCH  27  28
ENDBRANCH  26  27
ENDBRANCH   1  26
BRANCH   1  51
ATOM     51  C   UNL     1      34.301  33.706  58.151  1.00  0.00     0.243 C 
ATOM     52  O   UNL     1      34.893  32.739  58.631  1.00  0.00    -0.273 OA
ATOM     53  N   UNL     1      34.208  33.889  56.799  1.00  0.00    -0.343 N 
ATOM     54  H   UNL     1      33.541  34.620  56.573  1.00  0.00     0.164 HD
BRANCH  53  55
ATOM     55  C   UNL     1      34.502  32.945  55.710  1.00  0.00     0.172 C 
BRANCH  55  56
ATOM     56  C   UNL     1      35.995  32.812  55.373  1.00  0.00     0.047 C 
BRANCH  56  57
ATOM     57  C   UNL     1      36.440  31.386  55.098  1.00  0.00     0.125 C 
BRANCH  57  58
ATOM     58  C   UNL     1      36.979  31.255  53.698  1.00  0.00     0.303 C 
ATOM     59  O   UNL     1      36.300  31.319  52.697  1.00  0.00    -0.252 OA
BRANCH  58  60
ATOM     60  O   UNL     1      38.315  31.045  53.634  1.00  0.00    -0.481 OA
ATOM     61  H   UNL     1      38.818  31.786  54.011  1.00  0.00     0.296 HD
ENDBRANCH  58  60
ENDBRANCH  57  58
ENDBRANCH  56  57
ENDBRANCH  55  56
BRANCH  55  62
ATOM     62  C   UNL     1      33.751  32.987  54.351  1.00  0.00     0.243 C 
ATOM     63  O   UNL     1      32.853  32.178  54.104  1.00  0.00    -0.273 OA
ATOM     64  N   UNL     1      34.239  33.809  53.380  1.00  0.00    -0.342 N 
ATOM     65  H   UNL     1      35.064  34.365  53.605  1.00  0.00     0.164 HD
BRANCH  64  66
ATOM     66  C   UNL     1      33.865  33.705  51.960  1.00  0.00     0.175 C 
BRANCH  66  67
ATOM     67  C   UNL     1      34.893  34.429  51.060  1.00  0.00     0.070 C 
BRANCH  67  68
ATOM     68  C   UNL     1      34.505  34.607  49.601  1.00  0.00    -0.045 A 
ATOM     69  C   UNL     1      34.335  35.879  49.033  1.00  0.00     0.007 A 
ATOM     70  C   UNL     1      34.387  33.484  48.765  1.00  0.00     0.007 A 
ATOM     71  C   UNL     1      34.058  36.024  47.667  1.00  0.00     0.046 A 
ATOM     72  C   UNL     1      34.109  33.627  47.402  1.00  0.00     0.046 A 
ATOM     73  C   UNL     1      33.952  34.895  46.862  1.00  0.00     0.115 A 
BRANCH  73  74
ATOM     74  O   UNL     1      33.706  34.988  45.525  1.00  0.00    -0.508 OA
ATOM     75  H   UNL     1      33.861  34.122  45.116  1.00  0.00     0.293 HD
ENDBRANCH  73  74
ENDBRANCH  67  68
ENDBRANCH  66  67
BRANCH  66  76
ATOM     76  C   UNL     1      32.434  34.275  51.710  1.00  0.00     0.243 C 
ATOM     77  O   UNL     1      32.142  35.458  51.882  1.00  0.00    -0.273 OA
ATOM     78  N   UNL     1      31.544  33.395  51.132  1.00  0.00    -0.345 N 
ATOM     79  H   UNL     1      31.907  32.510  50.777  1.00  0.00     0.164 HD
BRANCH  78  80
ATOM     80  C   UNL     1      30.192  33.758  50.754  1.00  0.00     0.216 C 
BRANCH  80  81
ATOM     81  C   UNL     1      29.163  32.863  51.468  1.00  0.00     0.240 C 
ATOM     82  O   UNL     1      27.952  33.084  51.454  1.00  0.00    -0.273 OA
ATOM     83  N   UNL     1      29.701  31.777  52.126  1.00  0.00    -0.343 N 
ATOM     84  H   UNL     1      30.641  31.478  51.893  1.00  0.00     0.164 HD
BRANCH  83  85
ATOM     85  C   UNL     1      28.854  30.834  52.872  1.00  0.00     0.173 C 
BRANCH  85  86
ATOM     86  C   UNL     1      29.504  29.440  52.755  1.00  0.00     0.240 C 
ATOM     87  N   UNL     1      28.711  28.482  52.188  1.00  0.00    -0.368 N 
ATOM     88  O   UNL     1      30.668  29.193  53.056  1.00  0.00    -0.273 OA
ATOM     89  H   UNL     1      27.914  28.765  51.621  1.00  0.00     0.159 HD
ATOM     90  H   UNL     1      29.139  27.588  51.991  1.00  0.00     0.159 HD
ENDBRANCH  85  86
BRANCH  85  91
ATOM     91  C   UNL     1      28.698  31.260  54.350  1.00  0.00     0.015 C 
ATOM     92  C   UNL     1      29.700  32.359  54.721  1.00  0.00     0.010 C 
ATOM     93  C   UNL     1      27.281  31.776  54.637  1.00  0.00     0.010 C 
ENDBRANCH  85  91
ENDBRANCH  83  85
ENDBRANCH  80  81
ENDBRANCH  78  80
ENDBRANCH  66  76
ENDBRANCH  64  66
ENDBRANCH  55  62
ENDBRANCH  53  55
ENDBRANCH   1  51
TORSDOF 39
ENDMDL
MODEL 6
REMARK VINA RESULT:    -8.350      2.090      8.721
REMARK INTER + INTRA:         -33.390
REMARK INTER:                 -27.698
REMARK INTRA:                  -5.692
REMARK UNBOUND:                -6.736
REMARK SMILES C=C(N[C@H](CCCCNC(=O)C[C@@H](Sc1ccc2ccccc2c1)C(=O)O)C(=O)N[C@H](CCC(=O)O)C(=O)N[C@H](Cc1ccc(O)cc1)C(=O)NCC(=O)N[C@@H](C(N)=O)C(C)C)[C@@H](CCC)NC(=O)[C@@H](NC(=O)CNC)C(C)C
REMARK SMILES IDX 4 1 3 2 2 4 1 5 63 6 64 7 65 8 66 9 67 10 68 11 69 13 70 14
REMARK SMILES IDX 71 15 72 16 73 18 74 19 75 20 76 21 77 23 78 24 79 25 5 26
REMARK SMILES IDX 6 27 7 28 8 29 9 30 10 31 11 33 12 34 13 35 14 36 15 37
REMARK SMILES IDX 16 38 24 39 17 40 23 41 18 42 22 43 19 44 21 45 20 46 25 47
REMARK SMILES IDX 26 48 27 49 28 51 29 52 30 53 31 55 32 56 33 57 34 58 35 59
REMARK SMILES IDX 36 60 37 62 38 63 39 64 40 66 41 67 42 68 43 69 48 70 44 71
REMARK SMILES IDX 47 72 45 73 46 74 49 76 50 77 51 78 52 80 53 81 54 82 55 83
REMARK SMILES IDX 56 85 57 86 58 87 59 88 60 91 61 92 62 93
REMARK H PARENT 3 3 67 12 71 17 75 22 9 32 27 50 30 54 36 61 39 65 46 75 51 79
REMARK H PARENT 55 84 58 89 58 90
REMARK Flexibility Score: inf
ROOT
ATOM      1  C   UNL     1      31.765  32.521  55.748  1.00  0.00     0.168 C 
ENDROOT
BRANCH   1   2
ATOM      2  N   UNL     1      32.621  32.977  56.887  1.00  0.00    -0.376 N 
ATOM      3  H   UNL     1      32.228  33.844  57.294  1.00  0.00     0.161 HD
BRANCH   2   4
ATOM      4  C   UNL     1      33.306  32.299  57.904  1.00  0.00     0.027 C 
ATOM      5  C   UNL     1      33.913  31.115  57.708  1.00  0.00     0.034 C 
BRANCH   4   6
ATOM      6  C   UNL     1      33.507  32.985  59.301  1.00  0.00     0.128 C 
BRANCH   6   7
ATOM      7  C   UNL     1      34.309  32.085  60.290  1.00  0.00     0.031 C 
BRANCH   7   8
ATOM      8  C   UNL     1      33.494  31.626  61.515  1.00  0.00    -0.001 C 
ATOM      9  C   UNL     1      32.313  30.730  61.154  1.00  0.00     0.004 C 
ENDBRANCH   7   8
ENDBRANCH   6   7
BRANCH   6  10
ATOM     10  N   UNL     1      33.924  34.399  59.338  1.00  0.00    -0.346 N 
ATOM     11  C   UNL     1      33.301  35.562  59.709  1.00  0.00     0.243 C 
ATOM     12  H   UNL     1      34.911  34.530  59.118  1.00  0.00     0.164 HD
ATOM     13  O   UNL     1      32.175  35.610  60.216  1.00  0.00    -0.273 OA
BRANCH  11  14
ATOM     14  C   UNL     1      34.139  36.875  59.498  1.00  0.00     0.173 C 
BRANCH  14  15
ATOM     15  N   UNL     1      33.511  38.015  60.183  1.00  0.00    -0.343 N 
ATOM     16  C   UNL     1      32.867  39.046  59.549  1.00  0.00     0.234 C 
ATOM     17  H   UNL     1      33.660  38.135  61.185  1.00  0.00     0.164 HD
ATOM     18  O   UNL     1      32.825  39.129  58.313  1.00  0.00    -0.274 OA
BRANCH  16  19
ATOM     19  C   UNL     1      32.134  40.038  60.455  1.00  0.00     0.181 C 
BRANCH  19  20
ATOM     20  N   UNL     1      32.110  41.388  59.861  1.00  0.00    -0.311 NA
ATOM     21  C   UNL     1      30.730  41.759  59.534  1.00  0.00     0.101 C 
ATOM     22  H   UNL     1      32.645  41.368  58.991  1.00  0.00     0.122 HD
ENDBRANCH  19  20
ENDBRANCH  16  19
ENDBRANCH  14  15
BRANCH  14  23
ATOM     23  C   UNL     1      35.664  36.727  59.791  1.00  0.00     0.015 C 
ATOM     24  C   UNL     1      36.431  38.012  59.452  1.00  0.00     0.010 C 
ATOM     25  C   UNL     1      35.965  36.380  61.259  1.00  0.00     0.010 C 
ENDBRANCH  14  23
ENDBRANCH  11  14
ENDBRANCH   6  10
ENDBRANCH   4   6
ENDBRANCH   2   4
ENDBRANCH   1   2
BRANCH   1  26
ATOM     26  C   UNL     1      32.213  32.936  54.332  1.00  0.00     0.035 C 
BRANCH  26  27
ATOM     27  C   UNL     1      33.691  33.285  54.114  1.00  0.00     0.004 C 
BRANCH  27  28
ATOM     28  C   UNL     1      34.054  33.687  52.682  1.00  0.00     0.021 C 
BRANCH  28  29
ATOM     29  C   UNL     1      32.796  34.059  51.895  1.00  0.00     0.116 C 
BRANCH  29  30
ATOM     30  N   UNL     1      32.865  33.636  50.513  1.00  0.00    -0.356 N 
ATOM     31  C   UNL     1      32.236  34.362  49.520  1.00  0.00     0.221 C 
ATOM     32  H   UNL     1      33.385  32.801  50.272  1.00  0.00     0.163 HD
ATOM     33  O   UNL     1      31.540  35.345  49.742  1.00  0.00    -0.275 OA
BRANCH  31  34
ATOM     34  C   UNL     1      32.451  33.806  48.132  1.00  0.00     0.126 C 
BRANCH  34  35
ATOM     35  C   UNL     1      33.843  34.124  47.589  1.00  0.00     0.170 C 
BRANCH  35  36
ATOM     36  S   UNL     1      34.502  35.797  48.058  1.00  0.00    -0.110 SA
BRANCH  36  37
ATOM     37  C   UNL     1      33.879  36.856  46.765  1.00  0.00     0.009 A 
ATOM     38  C   UNL     1      34.264  38.197  46.711  1.00  0.00     0.016 A 
ATOM     39  C   UNL     1      33.133  36.316  45.714  1.00  0.00     0.023 A 
ATOM     40  C   UNL     1      33.917  38.992  45.614  1.00  0.00     0.010 A 
ATOM     41  C   UNL     1      32.781  37.099  44.602  1.00  0.00    -0.017 A 
ATOM     42  C   UNL     1      33.196  38.451  44.543  1.00  0.00    -0.018 A 
ATOM     43  C   UNL     1      32.052  36.564  43.528  1.00  0.00     0.009 A 
ATOM     44  C   UNL     1      32.903  39.213  43.402  1.00  0.00     0.009 A 
ATOM     45  C   UNL     1      31.768  37.339  42.402  1.00  0.00     0.001 A 
ATOM     46  C   UNL     1      32.205  38.658  42.335  1.00  0.00     0.001 A 
ENDBRANCH  36  37
ENDBRANCH  35  36
BRANCH  35  47
ATOM     47  C   UNL     1      34.831  33.024  47.960  1.00  0.00     0.317 C 
ATOM     48  O   UNL     1      35.472  32.999  49.001  1.00  0.00    -0.251 OA
BRANCH  47  49
ATOM     49  O   UNL     1      34.891  32.004  47.069  1.00  0.00    -0.480 OA
ATOM     50  H   UNL     1      35.694  31.459  47.216  1.00  0.00     0.296 HD
ENDBRANCH  47  49
ENDBRANCH  35  47
ENDBRANCH  34  35
ENDBRANCH  31  34
ENDBRANCH  29  30
ENDBRANCH  28  29
ENDBRANCH  27  28
ENDBRANCH  26  27
ENDBRANCH   1  26
BRANCH   1  51
ATOM     51  C   UNL     1      30.233  32.817  55.908  1.00  0.00     0.243 C 
ATOM     52  O   UNL     1      29.816  33.555  56.801  1.00  0.00    -0.273 OA
ATOM     53  N   UNL     1      29.379  32.149  55.074  1.00  0.00    -0.343 N 
ATOM     54  H   UNL     1      29.878  31.740  54.290  1.00  0.00     0.164 HD
BRANCH  53  55
ATOM     55  C   UNL     1      27.935  32.344  54.871  1.00  0.00     0.172 C 
BRANCH  55  56
ATOM     56  C   UNL     1      27.581  33.290  53.713  1.00  0.00     0.047 C 
BRANCH  56  57
ATOM     57  C   UNL     1      28.743  33.585  52.780  1.00  0.00     0.125 C 
BRANCH  57  58
ATOM     58  C   UNL     1      28.816  32.562  51.678  1.00  0.00     0.303 C 
ATOM     59  O   UNL     1      27.851  32.092  51.118  1.00  0.00    -0.252 OA
BRANCH  58  60
ATOM     60  O   UNL     1      30.076  32.187  51.351  1.00  0.00    -0.481 OA
ATOM     61  H   UNL     1      30.737  32.831  51.655  1.00  0.00     0.296 HD
ENDBRANCH  58  60
ENDBRANCH  57  58
ENDBRANCH  56  57
ENDBRANCH  55  56
BRANCH  55  62
ATOM     62  C   UNL     1      26.975  32.704  56.037  1.00  0.00     0.243 C 
ATOM     63  O   UNL     1      26.360  33.774  56.038  1.00  0.00    -0.273 OA
ATOM     64  N   UNL     1      26.981  31.899  57.137  1.00  0.00    -0.342 N 
ATOM     65  H   UNL     1      27.607  31.093  57.127  1.00  0.00     0.164 HD
BRANCH  64  66
ATOM     66  C   UNL     1      26.407  32.288  58.435  1.00  0.00     0.175 C 
BRANCH  66  67
ATOM     67  C   UNL     1      27.505  32.795  59.398  1.00  0.00     0.070 C 
BRANCH  67  68
ATOM     68  C   UNL     1      27.308  34.190  59.971  1.00  0.00    -0.045 A 
ATOM     69  C   UNL     1      28.122  35.266  59.585  1.00  0.00     0.007 A 
ATOM     70  C   UNL     1      26.240  34.443  60.848  1.00  0.00     0.007 A 
ATOM     71  C   UNL     1      27.872  36.561  60.062  1.00  0.00     0.046 A 
ATOM     72  C   UNL     1      25.992  35.734  61.326  1.00  0.00     0.046 A 
ATOM     73  C   UNL     1      26.805  36.784  60.925  1.00  0.00     0.115 A 
BRANCH  73  74
ATOM     74  O   UNL     1      26.512  38.029  61.396  1.00  0.00    -0.508 OA
ATOM     75  H   UNL     1      27.181  38.652  61.072  1.00  0.00     0.293 HD
ENDBRANCH  73  74
ENDBRANCH  67  68
ENDBRANCH  66  67
BRANCH  66  76
ATOM     76  C   UNL     1      25.624  31.105  59.084  1.00  0.00     0.243 C 
ATOM     77  O   UNL     1      25.582  29.977  58.594  1.00  0.00    -0.273 OA
ATOM     78  N   UNL     1      25.102  31.362  60.334  1.00  0.00    -0.345 N 
ATOM     79  H   UNL     1      25.382  32.223  60.803  1.00  0.00     0.164 HD
BRANCH  78  80
ATOM     80  C   UNL     1      24.408  30.368  61.130  1.00  0.00     0.216 C 
BRANCH  80  81
ATOM     81  C   UNL     1      25.394  29.593  62.022  1.00  0.00     0.240 C 
ATOM     82  O   UNL     1      25.492  29.775  63.236  1.00  0.00    -0.273 OA
ATOM     83  N   UNL     1      26.167  28.664  61.357  1.00  0.00    -0.343 N 
ATOM     84  H   UNL     1      25.877  28.352  60.437  1.00  0.00     0.164 HD
BRANCH  83  85
ATOM     85  C   UNL     1      27.170  27.853  62.063  1.00  0.00     0.173 C 
BRANCH  85  86
ATOM     86  C   UNL     1      26.625  26.412  62.143  1.00  0.00     0.240 C 
ATOM     87  N   UNL     1      25.985  26.104  63.310  1.00  0.00    -0.368 N 
ATOM     88  O   UNL     1      26.666  25.605  61.219  1.00  0.00    -0.273 OA
ATOM     89  H   UNL     1      25.638  26.856  63.903  1.00  0.00     0.159 HD
ATOM     90  H   UNL     1      25.517  25.210  63.356  1.00  0.00     0.159 HD
ENDBRANCH  85  86
BRANCH  85  91
ATOM     91  C   UNL     1      28.540  27.897  61.346  1.00  0.00     0.015 C 
ATOM     92  C   UNL     1      28.922  29.333  60.966  1.00  0.00     0.010 C 
ATOM     93  C   UNL     1      29.653  27.314  62.228  1.00  0.00     0.010 C 
ENDBRANCH  85  91
ENDBRANCH  83  85
ENDBRANCH  80  81
ENDBRANCH  78  80
ENDBRANCH  66  76
ENDBRANCH  64  66
ENDBRANCH  55  62
ENDBRANCH  53  55
ENDBRANCH   1  51
TORSDOF 39
ENDMDL
MODEL 7
REMARK VINA RESULT:    -8.260      4.308      8.294
REMARK INTER + INTRA:         -33.104
REMARK INTER:                 -26.655
REMARK INTRA:                  -6.449
REMARK UNBOUND:                -6.736
REMARK SMILES C=C(N[C@H](CCCCNC(=O)C[C@@H](Sc1ccc2ccccc2c1)C(=O)O)C(=O)N[C@H](CCC(=O)O)C(=O)N[C@H](Cc1ccc(O)cc1)C(=O)NCC(=O)N[C@@H](C(N)=O)C(C)C)[C@@H](CCC)NC(=O)[C@@H](NC(=O)CNC)C(C)C
REMARK SMILES IDX 4 1 3 2 2 4 1 5 63 6 64 7 65 8 66 9 67 10 68 11 69 13 70 14
REMARK SMILES IDX 71 15 72 16 73 18 74 19 75 20 76 21 77 23 78 24 79 25 5 26
REMARK SMILES IDX 6 27 7 28 8 29 9 30 10 31 11 33 12 34 13 35 14 36 15 37
REMARK SMILES IDX 16 38 24 39 17 40 23 41 18 42 22 43 19 44 21 45 20 46 25 47
REMARK SMILES IDX 26 48 27 49 28 51 29 52 30 53 31 55 32 56 33 57 34 58 35 59
REMARK SMILES IDX 36 60 37 62 38 63 39 64 40 66 41 67 42 68 43 69 48 70 44 71
REMARK SMILES IDX 47 72 45 73 46 74 49 76 50 77 51 78 52 80 53 81 54 82 55 83
REMARK SMILES IDX 56 85 57 86 58 87 59 88 60 91 61 92 62 93
REMARK H PARENT 3 3 67 12 71 17 75 22 9 32 27 50 30 54 36 61 39 65 46 75 51 79
REMARK H PARENT 55 84 58 89 58 90
REMARK Flexibility Score: inf
ROOT
ATOM      1  C   UNL     1      31.943  34.184  58.994  1.00  0.00     0.168 C 
ENDROOT
BRANCH   1   2
ATOM      2  N   UNL     1      31.768  33.186  60.094  1.00  0.00    -0.376 N 
ATOM      3  H   UNL     1      30.766  33.118  60.348  1.00  0.00     0.161 HD
BRANCH   2   4
ATOM      4  C   UNL     1      32.366  31.951  60.373  1.00  0.00     0.027 C 
ATOM      5  C   UNL     1      33.404  31.818  61.218  1.00  0.00     0.034 C 
BRANCH   4   6
ATOM      6  C   UNL     1      31.739  30.632  59.797  1.00  0.00     0.128 C 
BRANCH   6   7
ATOM      7  C   UNL     1      32.824  29.574  59.432  1.00  0.00     0.031 C 
BRANCH   7   8
ATOM      8  C   UNL     1      32.556  28.177  60.027  1.00  0.00    -0.001 C 
ATOM      9  C   UNL     1      31.919  27.210  59.033  1.00  0.00     0.004 C 
ENDBRANCH   7   8
ENDBRANCH   6   7
BRANCH   6  10
ATOM     10  N   UNL     1      30.571  30.050  60.483  1.00  0.00    -0.346 N 
ATOM     11  C   UNL     1      29.227  30.323  60.466  1.00  0.00     0.243 C 
ATOM     12  H   UNL     1      30.799  29.216  61.022  1.00  0.00     0.164 HD
ATOM     13  O   UNL     1      28.702  31.151  59.714  1.00  0.00    -0.273 OA
BRANCH  11  14
ATOM     14  C   UNL     1      28.350  29.466  61.448  1.00  0.00     0.173 C 
BRANCH  14  15
ATOM     15  N   UNL     1      26.925  29.555  61.095  1.00  0.00    -0.343 N 
ATOM     16  C   UNL     1      25.950  30.062  61.916  1.00  0.00     0.234 C 
ATOM     17  H   UNL     1      26.596  29.104  60.242  1.00  0.00     0.164 HD
ATOM     18  O   UNL     1      26.195  30.427  63.074  1.00  0.00    -0.274 OA
BRANCH  16  19
ATOM     19  C   UNL     1      24.563  30.224  61.289  1.00  0.00     0.181 C 
BRANCH  19  20
ATOM     20  N   UNL     1      24.243  31.646  61.062  1.00  0.00    -0.311 NA
ATOM     21  C   UNL     1      24.508  31.993  59.662  1.00  0.00     0.101 C 
ATOM     22  H   UNL     1      24.857  32.214  61.649  1.00  0.00     0.122 HD
ENDBRANCH  19  20
ENDBRANCH  16  19
ENDBRANCH  14  15
BRANCH  14  23
ATOM     23  C   UNL     1      28.855  28.005  61.663  1.00  0.00     0.015 C 
ATOM     24  C   UNL     1      28.334  27.417  62.981  1.00  0.00     0.010 C 
ATOM     25  C   UNL     1      28.437  27.051  60.531  1.00  0.00     0.010 C 
ENDBRANCH  14  23
ENDBRANCH  11  14
ENDBRANCH   6  10
ENDBRANCH   4   6
ENDBRANCH   2   4
ENDBRANCH   1   2
BRANCH   1  26
ATOM     26  C   UNL     1      32.951  33.825  57.883  1.00  0.00     0.035 C 
BRANCH  26  27
ATOM     27  C   UNL     1      32.510  32.833  56.799  1.00  0.00     0.004 C 
BRANCH  27  28
ATOM     28  C   UNL     1      33.639  32.309  55.907  1.00  0.00     0.021 C 
BRANCH  28  29
ATOM     29  C   UNL     1      33.355  32.631  54.439  1.00  0.00     0.116 C 
BRANCH  29  30
ATOM     30  N   UNL     1      31.940  32.760  54.166  1.00  0.00    -0.356 N 
ATOM     31  C   UNL     1      31.495  33.482  53.076  1.00  0.00     0.221 C 
ATOM     32  H   UNL     1      31.271  32.310  54.778  1.00  0.00     0.163 HD
ATOM     33  O   UNL     1      32.240  34.102  52.328  1.00  0.00    -0.275 OA
BRANCH  31  34
ATOM     34  C   UNL     1      29.993  33.472  52.914  1.00  0.00     0.126 C 
BRANCH  34  35
ATOM     35  C   UNL     1      29.347  32.250  53.564  1.00  0.00     0.170 C 
BRANCH  35  36
ATOM     36  S   UNL     1      27.571  32.475  54.061  1.00  0.00    -0.110 SA
BRANCH  36  37
ATOM     37  C   UNL     1      27.691  33.130  55.715  1.00  0.00     0.009 A 
ATOM     38  C   UNL     1      28.911  33.102  56.394  1.00  0.00     0.016 A 
ATOM     39  C   UNL     1      26.611  33.816  56.279  1.00  0.00     0.023 A 
ATOM     40  C   UNL     1      29.056  33.758  57.620  1.00  0.00     0.010 A 
ATOM     41  C   UNL     1      26.742  34.486  57.506  1.00  0.00    -0.017 A 
ATOM     42  C   UNL     1      27.989  34.473  58.176  1.00  0.00    -0.018 A 
ATOM     43  C   UNL     1      25.672  35.197  58.073  1.00  0.00     0.009 A 
ATOM     44  C   UNL     1      28.138  35.198  59.368  1.00  0.00     0.009 A 
ATOM     45  C   UNL     1      25.840  35.912  59.260  1.00  0.00     0.001 A 
ATOM     46  C   UNL     1      27.075  35.921  59.900  1.00  0.00     0.001 A 
ENDBRANCH  36  37
ENDBRANCH  35  36
BRANCH  35  47
ATOM     47  C   UNL     1      29.516  31.017  52.683  1.00  0.00     0.317 C 
ATOM     48  O   UNL     1      29.257  29.876  53.040  1.00  0.00    -0.251 OA
BRANCH  47  49
ATOM     49  O   UNL     1      29.905  31.288  51.413  1.00  0.00    -0.480 OA
ATOM     50  H   UNL     1      29.168  31.681  50.898  1.00  0.00     0.296 HD
ENDBRANCH  47  49
ENDBRANCH  35  47
ENDBRANCH  34  35
ENDBRANCH  31  34
ENDBRANCH  29  30
ENDBRANCH  28  29
ENDBRANCH  27  28
ENDBRANCH  26  27
ENDBRANCH   1  26
BRANCH   1  51
ATOM     51  C   UNL     1      32.206  35.656  59.466  1.00  0.00     0.243 C 
ATOM     52  O   UNL     1      31.840  36.044  60.576  1.00  0.00    -0.273 OA
ATOM     53  N   UNL     1      32.772  36.510  58.560  1.00  0.00    -0.343 N 
ATOM     54  H   UNL     1      33.180  36.000  57.782  1.00  0.00     0.164 HD
BRANCH  53  55
ATOM     55  C   UNL     1      33.289  37.873  58.762  1.00  0.00     0.172 C 
BRANCH  55  56
ATOM     56  C   UNL     1      34.502  37.957  59.701  1.00  0.00     0.047 C 
BRANCH  56  57
ATOM     57  C   UNL     1      35.523  39.005  59.297  1.00  0.00     0.125 C 
BRANCH  57  58
ATOM     58  C   UNL     1      35.356  40.258  60.115  1.00  0.00     0.303 C 
ATOM     59  O   UNL     1      35.687  41.362  59.746  1.00  0.00    -0.252 OA
BRANCH  58  60
ATOM     60  O   UNL     1      34.802  40.055  61.334  1.00  0.00    -0.481 OA
ATOM     61  H   UNL     1      33.896  39.708  61.268  1.00  0.00     0.296 HD
ENDBRANCH  58  60
ENDBRANCH  57  58
ENDBRANCH  56  57
ENDBRANCH  55  56
BRANCH  55  62
ATOM     62  C   UNL     1      32.364  39.063  59.137  1.00  0.00     0.243 C 
ATOM     63  O   UNL     1      31.638  39.005  60.133  1.00  0.00    -0.273 OA
ATOM     64  N   UNL     1      32.238  40.078  58.237  1.00  0.00    -0.342 N 
ATOM     65  H   UNL     1      32.773  40.008  57.371  1.00  0.00     0.164 HD
BRANCH  64  66
ATOM     66  C   UNL     1      31.161  41.080  58.283  1.00  0.00     0.175 C 
BRANCH  66  67
ATOM     67  C   UNL     1      30.780  41.551  56.860  1.00  0.00     0.070 C 
BRANCH  67  68
ATOM     68  C   UNL     1      29.316  41.892  56.632  1.00  0.00    -0.045 A 
ATOM     69  C   UNL     1      28.710  42.996  57.253  1.00  0.00     0.007 A 
ATOM     70  C   UNL     1      28.555  41.142  55.719  1.00  0.00     0.007 A 
ATOM     71  C   UNL     1      27.382  43.341  56.966  1.00  0.00     0.046 A 
ATOM     72  C   UNL     1      27.230  41.485  55.433  1.00  0.00     0.046 A 
ATOM     73  C   UNL     1      26.655  42.585  56.054  1.00  0.00     0.115 A 
BRANCH  73  74
ATOM     74  O   UNL     1      25.369  42.896  55.728  1.00  0.00    -0.508 OA
ATOM     75  H   UNL     1      24.769  42.387  56.297  1.00  0.00     0.293 HD
ENDBRANCH  73  74
ENDBRANCH  67  68
ENDBRANCH  66  67
BRANCH  66  76
ATOM     76  C   UNL     1      31.562  42.302  59.166  1.00  0.00     0.243 C 
ATOM     77  O   UNL     1      32.616  42.918  59.020  1.00  0.00    -0.273 OA
ATOM     78  N   UNL     1      30.584  42.749  60.029  1.00  0.00    -0.345 N 
ATOM     79  H   UNL     1      29.645  42.365  59.928  1.00  0.00     0.164 HD
BRANCH  78  80
ATOM     80  C   UNL     1      30.739  43.916  60.876  1.00  0.00     0.216 C 
BRANCH  80  81
ATOM     81  C   UNL     1      30.304  45.193  60.135  1.00  0.00     0.240 C 
ATOM     82  O   UNL     1      29.156  45.636  60.171  1.00  0.00    -0.273 OA
ATOM     83  N   UNL     1      31.307  45.818  59.423  1.00  0.00    -0.343 N 
ATOM     84  H   UNL     1      32.272  45.591  59.633  1.00  0.00     0.164 HD
BRANCH  83  85
ATOM     85  C   UNL     1      31.051  47.040  58.647  1.00  0.00     0.173 C 
BRANCH  85  86
ATOM     86  C   UNL     1      32.252  47.983  58.863  1.00  0.00     0.240 C 
ATOM     87  N   UNL     1      33.476  47.413  58.655  1.00  0.00    -0.368 N 
ATOM     88  O   UNL     1      32.154  49.180  59.118  1.00  0.00    -0.273 OA
ATOM     89  H   UNL     1      33.541  46.559  58.103  1.00  0.00     0.159 HD
ATOM     90  H   UNL     1      34.279  48.025  58.676  1.00  0.00     0.159 HD
ENDBRANCH  85  86
BRANCH  85  91
ATOM     91  C   UNL     1      30.846  46.725  57.147  1.00  0.00     0.015 C 
ATOM     92  C   UNL     1      31.409  45.345  56.787  1.00  0.00     0.010 C 
ATOM     93  C   UNL     1      29.360  46.760  56.765  1.00  0.00     0.010 C 
ENDBRANCH  85  91
ENDBRANCH  83  85
ENDBRANCH  80  81
ENDBRANCH  78  80
ENDBRANCH  66  76
ENDBRANCH  64  66
ENDBRANCH  55  62
ENDBRANCH  53  55
ENDBRANCH   1  51
TORSDOF 39
ENDMDL
MODEL 8
REMARK VINA RESULT:    -8.201      4.937     10.495
REMARK INTER + INTRA:         -32.917
REMARK INTER:                 -25.600
REMARK INTRA:                  -7.316
REMARK UNBOUND:                -6.736
REMARK SMILES C=C(N[C@H](CCCCNC(=O)C[C@@H](Sc1ccc2ccccc2c1)C(=O)O)C(=O)N[C@H](CCC(=O)O)C(=O)N[C@H](Cc1ccc(O)cc1)C(=O)NCC(=O)N[C@@H](C(N)=O)C(C)C)[C@@H](CCC)NC(=O)[C@@H](NC(=O)CNC)C(C)C
REMARK SMILES IDX 4 1 3 2 2 4 1 5 63 6 64 7 65 8 66 9 67 10 68 11 69 13 70 14
REMARK SMILES IDX 71 15 72 16 73 18 74 19 75 20 76 21 77 23 78 24 79 25 5 26
REMARK SMILES IDX 6 27 7 28 8 29 9 30 10 31 11 33 12 34 13 35 14 36 15 37
REMARK SMILES IDX 16 38 24 39 17 40 23 41 18 42 22 43 19 44 21 45 20 46 25 47
REMARK SMILES IDX 26 48 27 49 28 51 29 52 30 53 31 55 32 56 33 57 34 58 35 59
REMARK SMILES IDX 36 60 37 62 38 63 39 64 40 66 41 67 42 68 43 69 48 70 44 71
REMARK SMILES IDX 47 72 45 73 46 74 49 76 50 77 51 78 52 80 53 81 54 82 55 83
REMARK SMILES IDX 56 85 57 86 58 87 59 88 60 91 61 92 62 93
REMARK H PARENT 3 3 67 12 71 17 75 22 9 32 27 50 30 54 36 61 39 65 46 75 51 79
REMARK H PARENT 55 84 58 89 58 90
REMARK Flexibility Score: inf
ROOT
ATOM      1  C   UNL     1      31.617  33.986  58.401  1.00  0.00     0.168 C 
ENDROOT
BRANCH   1   2
ATOM      2  N   UNL     1      32.816  33.355  59.035  1.00  0.00    -0.376 N 
ATOM      3  H   UNL     1      32.622  33.162  60.034  1.00  0.00     0.161 HD
BRANCH   2   4
ATOM      4  C   UNL     1      33.752  32.412  58.590  1.00  0.00     0.027 C 
ATOM      5  C   UNL     1      35.065  32.684  58.483  1.00  0.00     0.034 C 
BRANCH   4   6
ATOM      6  C   UNL     1      33.303  30.931  58.327  1.00  0.00     0.128 C 
BRANCH   6   7
ATOM      7  C   UNL     1      34.422  30.089  57.642  1.00  0.00     0.031 C 
BRANCH   7   8
ATOM      8  C   UNL     1      34.894  28.883  58.479  1.00  0.00    -0.001 C 
ATOM      9  C   UNL     1      36.288  29.069  59.073  1.00  0.00     0.004 C 
ENDBRANCH   7   8
ENDBRANCH   6   7
BRANCH   6  10
ATOM     10  N   UNL     1      32.609  30.203  59.405  1.00  0.00    -0.346 N 
ATOM     11  C   UNL     1      32.433  30.433  60.745  1.00  0.00     0.243 C 
ATOM     12  H   UNL     1      32.079  29.400  59.067  1.00  0.00     0.164 HD
ATOM     13  O   UNL     1      32.803  31.461  61.322  1.00  0.00    -0.273 OA
BRANCH  11  14
ATOM     14  C   UNL     1      31.665  29.309  61.529  1.00  0.00     0.173 C 
BRANCH  14  15
ATOM     15  N   UNL     1      31.676  28.043  60.781  1.00  0.00    -0.343 N 
ATOM     16  C   UNL     1      30.555  27.397  60.328  1.00  0.00     0.234 C 
ATOM     17  H   UNL     1      32.551  27.528  60.689  1.00  0.00     0.164 HD
ATOM     18  O   UNL     1      29.415  27.808  60.584  1.00  0.00    -0.274 OA
BRANCH  16  19
ATOM     19  C   UNL     1      30.797  26.188  59.421  1.00  0.00     0.181 C 
BRANCH  19  20
ATOM     20  N   UNL     1      31.963  26.403  58.544  1.00  0.00    -0.311 NA
ATOM     21  C   UNL     1      32.936  25.324  58.742  1.00  0.00     0.101 C 
ATOM     22  H   UNL     1      32.410  27.282  58.810  1.00  0.00     0.122 HD
ENDBRANCH  19  20
ENDBRANCH  16  19
ENDBRANCH  14  15
BRANCH  14  23
ATOM     23  C   UNL     1      32.083  29.159  63.025  1.00  0.00     0.015 C 
ATOM     24  C   UNL     1      30.863  29.166  63.956  1.00  0.00     0.010 C 
ATOM     25  C   UNL     1      32.873  27.868  63.304  1.00  0.00     0.010 C 
ENDBRANCH  14  23
ENDBRANCH  11  14
ENDBRANCH   6  10
ENDBRANCH   4   6
ENDBRANCH   2   4
ENDBRANCH   1   2
BRANCH   1  26
ATOM     26  C   UNL     1      31.080  35.274  59.059  1.00  0.00     0.035 C 
BRANCH  26  27
ATOM     27  C   UNL     1      32.065  36.151  59.842  1.00  0.00     0.004 C 
BRANCH  27  28
ATOM     28  C   UNL     1      33.037  36.959  58.976  1.00  0.00     0.021 C 
BRANCH  28  29
ATOM     29  C   UNL     1      32.946  38.447  59.315  1.00  0.00     0.116 C 
BRANCH  29  30
ATOM     30  N   UNL     1      31.764  39.070  58.759  1.00  0.00    -0.356 N 
ATOM     31  C   UNL     1      31.386  40.340  59.147  1.00  0.00     0.221 C 
ATOM     32  H   UNL     1      31.212  38.569  58.074  1.00  0.00     0.163 HD
ATOM     33  O   UNL     1      31.968  40.981  60.014  1.00  0.00    -0.275 OA
BRANCH  31  34
ATOM     34  C   UNL     1      30.159  40.853  58.432  1.00  0.00     0.126 C 
BRANCH  34  35
ATOM     35  C   UNL     1      30.067  42.378  58.460  1.00  0.00     0.170 C 
BRANCH  35  36
ATOM     36  S   UNL     1      29.878  43.180  56.795  1.00  0.00    -0.110 SA
BRANCH  36  37
ATOM     37  C   UNL     1      28.150  42.940  56.421  1.00  0.00     0.009 A 
ATOM     38  C   UNL     1      27.245  43.990  56.587  1.00  0.00     0.016 A 
ATOM     39  C   UNL     1      27.722  41.757  55.813  1.00  0.00     0.023 A 
ATOM     40  C   UNL     1      25.925  43.865  56.143  1.00  0.00     0.010 A 
ATOM     41  C   UNL     1      26.401  41.618  55.356  1.00  0.00    -0.017 A 
ATOM     42  C   UNL     1      25.495  42.696  55.506  1.00  0.00    -0.018 A 
ATOM     43  C   UNL     1      25.963  40.444  54.723  1.00  0.00     0.009 A 
ATOM     44  C   UNL     1      24.196  42.581  54.988  1.00  0.00     0.009 A 
ATOM     45  C   UNL     1      24.665  40.348  54.216  1.00  0.00     0.001 A 
ATOM     46  C   UNL     1      23.788  41.421  54.338  1.00  0.00     0.001 A 
ENDBRANCH  36  37
ENDBRANCH  35  36
BRANCH  35  47
ATOM     47  C   UNL     1      28.970  42.835  59.414  1.00  0.00     0.317 C 
ATOM     48  O   UNL     1      28.807  43.994  59.770  1.00  0.00    -0.251 OA
BRANCH  47  49
ATOM     49  O   UNL     1      28.110  41.855  59.788  1.00  0.00    -0.480 OA
ATOM     50  H   UNL     1      28.499  40.969  59.625  1.00  0.00     0.296 HD
ENDBRANCH  47  49
ENDBRANCH  35  47
ENDBRANCH  34  35
ENDBRANCH  31  34
ENDBRANCH  29  30
ENDBRANCH  28  29
ENDBRANCH  27  28
ENDBRANCH  26  27
ENDBRANCH   1  26
BRANCH   1  51
ATOM     51  C   UNL     1      30.419  33.012  58.129  1.00  0.00     0.243 C 
ATOM     52  O   UNL     1      30.055  32.196  58.977  1.00  0.00    -0.273 OA
ATOM     53  N   UNL     1      29.860  33.044  56.881  1.00  0.00    -0.343 N 
ATOM     54  H   UNL     1      30.137  33.882  56.378  1.00  0.00     0.164 HD
BRANCH  53  55
ATOM     55  C   UNL     1      28.637  32.389  56.392  1.00  0.00     0.172 C 
BRANCH  55  56
ATOM     56  C   UNL     1      28.394  32.548  54.883  1.00  0.00     0.047 C 
BRANCH  56  57
ATOM     57  C   UNL     1      29.646  32.390  54.037  1.00  0.00     0.125 C 
BRANCH  57  58
ATOM     58  C   UNL     1      29.436  31.361  52.959  1.00  0.00     0.303 C 
ATOM     59  O   UNL     1      29.866  31.458  51.831  1.00  0.00    -0.252 OA
BRANCH  58  60
ATOM     60  O   UNL     1      28.702  30.291  53.347  1.00  0.00    -0.481 OA
ATOM     61  H   UNL     1      29.241  29.630  53.811  1.00  0.00     0.296 HD
ENDBRANCH  58  60
ENDBRANCH  57  58
ENDBRANCH  56  57
ENDBRANCH  55  56
BRANCH  55  62
ATOM     62  C   UNL     1      27.258  32.588  57.079  1.00  0.00     0.243 C 
ATOM     63  O   UNL     1      26.501  33.492  56.718  1.00  0.00    -0.273 OA
ATOM     64  N   UNL     1      26.999  31.864  58.205  1.00  0.00    -0.342 N 
ATOM     65  H   UNL     1      27.720  31.219  58.526  1.00  0.00     0.164 HD
BRANCH  64  66
ATOM     66  C   UNL     1      25.915  32.184  59.147  1.00  0.00     0.175 C 
BRANCH  66  67
ATOM     67  C   UNL     1      26.480  32.738  60.476  1.00  0.00     0.070 C 
BRANCH  67  68
ATOM     68  C   UNL     1      26.513  34.252  60.616  1.00  0.00    -0.045 A 
ATOM     69  C   UNL     1      25.666  34.929  61.506  1.00  0.00     0.007 A 
ATOM     70  C   UNL     1      27.464  35.001  59.902  1.00  0.00     0.007 A 
ATOM     71  C   UNL     1      25.769  36.317  61.680  1.00  0.00     0.046 A 
ATOM     72  C   UNL     1      27.567  36.385  60.074  1.00  0.00     0.046 A 
ATOM     73  C   UNL     1      26.723  37.031  60.965  1.00  0.00     0.115 A 
BRANCH  73  74
ATOM     74  O   UNL     1      26.874  38.377  61.118  1.00  0.00    -0.508 OA
ATOM     75  H   UNL     1      27.354  38.728  60.351  1.00  0.00     0.293 HD
ENDBRANCH  73  74
ENDBRANCH  67  68
ENDBRANCH  66  67
BRANCH  66  76
ATOM     76  C   UNL     1      25.017  30.938  59.421  1.00  0.00     0.243 C 
ATOM     77  O   UNL     1      23.867  31.020  59.850  1.00  0.00    -0.273 OA
ATOM     78  N   UNL     1      25.543  29.733  59.006  1.00  0.00    -0.345 N 
ATOM     79  H   UNL     1      26.383  29.751  58.428  1.00  0.00     0.164 HD
BRANCH  78  80
ATOM     80  C   UNL     1      24.830  28.474  59.105  1.00  0.00     0.216 C 
BRANCH  80  81
ATOM     81  C   UNL     1      24.852  27.944  60.549  1.00  0.00     0.240 C 
ATOM     82  O   UNL     1      23.837  27.598  61.157  1.00  0.00    -0.273 OA
ATOM     83  N   UNL     1      26.105  27.874  61.121  1.00  0.00    -0.343 N 
ATOM     84  H   UNL     1      26.921  27.900  60.519  1.00  0.00     0.164 HD
BRANCH  83  85
ATOM     85  C   UNL     1      26.295  27.405  62.501  1.00  0.00     0.173 C 
BRANCH  85  86
ATOM     86  C   UNL     1      26.721  25.924  62.429  1.00  0.00     0.240 C 
ATOM     87  N   UNL     1      25.690  25.033  62.325  1.00  0.00    -0.368 N 
ATOM     88  O   UNL     1      27.887  25.541  62.379  1.00  0.00    -0.273 OA
ATOM     89  H   UNL     1      24.780  25.359  62.004  1.00  0.00     0.159 HD
ATOM     90  H   UNL     1      25.931  24.066  62.163  1.00  0.00     0.159 HD
ENDBRANCH  85  86
BRANCH  85  91
ATOM     91  C   UNL     1      27.347  28.257  63.249  1.00  0.00     0.015 C 
ATOM     92  C   UNL     1      27.246  29.735  62.855  1.00  0.00     0.010 C 
ATOM     93  C   UNL     1      27.178  28.146  64.771  1.00  0.00     0.010 C 
ENDBRANCH  85  91
ENDBRANCH  83  85
ENDBRANCH  80  81
ENDBRANCH  78  80
ENDBRANCH  66  76
ENDBRANCH  64  66
ENDBRANCH  55  62
ENDBRANCH  53  55
ENDBRANCH   1  51
TORSDOF 39
ENDMDL
MODEL 9
REMARK VINA RESULT:    -8.191      4.839     10.614
REMARK INTER + INTRA:         -32.882
REMARK INTER:                 -26.086
REMARK INTRA:                  -6.796
REMARK UNBOUND:                -6.736
REMARK SMILES C=C(N[C@H](CCCCNC(=O)C[C@@H](Sc1ccc2ccccc2c1)C(=O)O)C(=O)N[C@H](CCC(=O)O)C(=O)N[C@H](Cc1ccc(O)cc1)C(=O)NCC(=O)N[C@@H](C(N)=O)C(C)C)[C@@H](CCC)NC(=O)[C@@H](NC(=O)CNC)C(C)C
REMARK SMILES IDX 4 1 3 2 2 4 1 5 63 6 64 7 65 8 66 9 67 10 68 11 69 13 70 14
REMARK SMILES IDX 71 15 72 16 73 18 74 19 75 20 76 21 77 23 78 24 79 25 5 26
REMARK SMILES IDX 6 27 7 28 8 29 9 30 10 31 11 33 12 34 13 35 14 36 15 37
REMARK SMILES IDX 16 38 24 39 17 40 23 41 18 42 22 43 19 44 21 45 20 46 25 47
REMARK SMILES IDX 26 48 27 49 28 51 29 52 30 53 31 55 32 56 33 57 34 58 35 59
REMARK SMILES IDX 36 60 37 62 38 63 39 64 40 66 41 67 42 68 43 69 48 70 44 71
REMARK SMILES IDX 47 72 45 73 46 74 49 76 50 77 51 78 52 80 53 81 54 82 55 83
REMARK SMILES IDX 56 85 57 86 58 87 59 88 60 91 61 92 62 93
REMARK H PARENT 3 3 67 12 71 17 75 22 9 32 27 50 30 54 36 61 39 65 46 75 51 79
REMARK H PARENT 55 84 58 89 58 90
REMARK Flexibility Score: inf
ROOT
ATOM      1  C   UNL     1      31.479  34.130  58.018  1.00  0.00     0.168 C 
ENDROOT
BRANCH   1   2
ATOM      2  N   UNL     1      32.841  33.559  57.783  1.00  0.00    -0.376 N 
ATOM      3  H   UNL     1      33.365  33.527  58.676  1.00  0.00     0.161 HD
BRANCH   2   4
ATOM      4  C   UNL     1      33.321  32.526  56.967  1.00  0.00     0.027 C 
ATOM      5  C   UNL     1      33.229  32.555  55.625  1.00  0.00     0.034 C 
BRANCH   4   6
ATOM      6  C   UNL     1      34.124  31.337  57.604  1.00  0.00     0.128 C 
BRANCH   6   7
ATOM      7  C   UNL     1      35.580  31.745  57.983  1.00  0.00     0.031 C 
BRANCH   7   8
ATOM      8  C   UNL     1      36.591  31.586  56.830  1.00  0.00    -0.001 C 
ATOM      9  C   UNL     1      37.832  30.788  57.222  1.00  0.00     0.004 C 
ENDBRANCH   7   8
ENDBRANCH   6   7
BRANCH   6  10
ATOM     10  N   UNL     1      33.466  30.516  58.636  1.00  0.00    -0.346 N 
ATOM     11  C   UNL     1      32.987  30.776  59.894  1.00  0.00     0.243 C 
ATOM     12  H   UNL     1      33.248  29.572  58.317  1.00  0.00     0.164 HD
ATOM     13  O   UNL     1      32.949  31.905  60.396  1.00  0.00    -0.273 OA
BRANCH  11  14
ATOM     14  C   UNL     1      32.423  29.535  60.675  1.00  0.00     0.173 C 
BRANCH  14  15
ATOM     15  N   UNL     1      32.491  29.752  62.128  1.00  0.00    -0.343 N 
ATOM     16  C   UNL     1      33.043  28.869  63.021  1.00  0.00     0.234 C 
ATOM     17  H   UNL     1      31.992  30.541  62.536  1.00  0.00     0.164 HD
ATOM     18  O   UNL     1      33.474  27.763  62.666  1.00  0.00    -0.274 OA
BRANCH  16  19
ATOM     19  C   UNL     1      33.169  29.366  64.463  1.00  0.00     0.181 C 
BRANCH  19  20
ATOM     20  N   UNL     1      32.164  30.403  64.761  1.00  0.00    -0.311 NA
ATOM     21  C   UNL     1      32.814  31.551  65.401  1.00  0.00     0.101 C 
ATOM     22  H   UNL     1      31.485  30.018  65.420  1.00  0.00     0.122 HD
ENDBRANCH  19  20
ENDBRANCH  16  19
ENDBRANCH  14  15
BRANCH  14  23
ATOM     23  C   UNL     1      31.031  29.033  60.178  1.00  0.00     0.015 C 
ATOM     24  C   UNL     1      30.994  27.504  60.056  1.00  0.00     0.010 C 
ATOM     25  C   UNL     1      29.874  29.454  61.101  1.00  0.00     0.010 C 
ENDBRANCH  14  23
ENDBRANCH  11  14
ENDBRANCH   6  10
ENDBRANCH   4   6
ENDBRANCH   2   4
ENDBRANCH   1   2
BRANCH   1  26
ATOM     26  C   UNL     1      31.291  34.980  59.291  1.00  0.00     0.035 C 
BRANCH  26  27
ATOM     27  C   UNL     1      32.482  35.809  59.789  1.00  0.00     0.004 C 
BRANCH  27  28
ATOM     28  C   UNL     1      32.718  37.117  59.029  1.00  0.00     0.021 C 
BRANCH  28  29
ATOM     29  C   UNL     1      32.246  38.312  59.859  1.00  0.00     0.116 C 
BRANCH  29  30
ATOM     30  N   UNL     1      31.257  39.109  59.166  1.00  0.00    -0.356 N 
ATOM     31  C   UNL     1      31.139  40.462  59.417  1.00  0.00     0.221 C 
ATOM     32  H   UNL     1      30.649  38.669  58.486  1.00  0.00     0.163 HD
ATOM     33  O   UNL     1      31.797  41.050  60.267  1.00  0.00    -0.275 OA
BRANCH  31  34
ATOM     34  C   UNL     1      30.091  41.147  58.572  1.00  0.00     0.126 C 
BRANCH  34  35
ATOM     35  C   UNL     1      30.322  42.653  58.470  1.00  0.00     0.170 C 
BRANCH  35  36
ATOM     36  S   UNL     1      30.134  43.360  56.762  1.00  0.00    -0.110 SA
BRANCH  36  37
ATOM     37  C   UNL     1      28.384  43.215  56.452  1.00  0.00     0.009 A 
ATOM     38  C   UNL     1      27.547  44.320  56.623  1.00  0.00     0.016 A 
ATOM     39  C   UNL     1      27.866  42.046  55.887  1.00  0.00     0.023 A 
ATOM     40  C   UNL     1      26.208  44.264  56.226  1.00  0.00     0.010 A 
ATOM     41  C   UNL     1      26.524  41.975  55.478  1.00  0.00    -0.017 A 
ATOM     42  C   UNL     1      25.689  43.108  55.632  1.00  0.00    -0.018 A 
ATOM     43  C   UNL     1      25.996  40.816  54.888  1.00  0.00     0.009 A 
ATOM     44  C   UNL     1      24.368  43.059  55.161  1.00  0.00     0.009 A 
ATOM     45  C   UNL     1      24.678  40.786  54.427  1.00  0.00     0.001 A 
ATOM     46  C   UNL     1      23.870  41.911  54.553  1.00  0.00     0.001 A 
ENDBRANCH  36  37
ENDBRANCH  35  36
BRANCH  35  47
ATOM     47  C   UNL     1      29.449  43.402  59.470  1.00  0.00     0.317 C 
ATOM     48  O   UNL     1      29.695  44.522  59.896  1.00  0.00    -0.251 OA
BRANCH  47  49
ATOM     49  O   UNL     1      28.303  42.758  59.803  1.00  0.00    -0.480 OA
ATOM     50  H   UNL     1      28.126  42.834  60.765  1.00  0.00     0.296 HD
ENDBRANCH  47  49
ENDBRANCH  35  47
ENDBRANCH  34  35
ENDBRANCH  31  34
ENDBRANCH  29  30
ENDBRANCH  28  29
ENDBRANCH  27  28
ENDBRANCH  26  27
ENDBRANCH   1  26
BRANCH   1  51
ATOM     51  C   UNL     1      30.300  33.101  57.910  1.00  0.00     0.243 C 
ATOM     52  O   UNL     1      29.981  32.395  58.867  1.00  0.00    -0.273 OA
ATOM     53  N   UNL     1      29.707  32.959  56.686  1.00  0.00    -0.343 N 
ATOM     54  H   UNL     1      29.948  33.730  56.070  1.00  0.00     0.164 HD
BRANCH  53  55
ATOM     55  C   UNL     1      28.489  32.218  56.322  1.00  0.00     0.172 C 
BRANCH  55  56
ATOM     56  C   UNL     1      28.169  32.224  54.820  1.00  0.00     0.047 C 
BRANCH  56  57
ATOM     57  C   UNL     1      29.396  32.321  53.929  1.00  0.00     0.125 C 
BRANCH  57  58
ATOM     58  C   UNL     1      29.121  31.727  52.574  1.00  0.00     0.303 C 
ATOM     59  O   UNL     1      29.914  31.059  51.948  1.00  0.00    -0.252 OA
BRANCH  58  60
ATOM     60  O   UNL     1      27.890  32.008  52.083  1.00  0.00    -0.481 OA
ATOM     61  H   UNL     1      27.474  32.753  52.549  1.00  0.00     0.296 HD
ENDBRANCH  58  60
ENDBRANCH  57  58
ENDBRANCH  56  57
ENDBRANCH  55  56
BRANCH  55  62
ATOM     62  C   UNL     1      27.137  32.433  57.057  1.00  0.00     0.243 C 
ATOM     63  O   UNL     1      26.375  33.342  56.715  1.00  0.00    -0.273 OA
ATOM     64  N   UNL     1      26.912  31.721  58.196  1.00  0.00    -0.342 N 
ATOM     65  H   UNL     1      27.639  31.071  58.497  1.00  0.00     0.164 HD
BRANCH  64  66
ATOM     66  C   UNL     1      25.865  32.057  59.174  1.00  0.00     0.175 C 
BRANCH  66  67
ATOM     67  C   UNL     1      26.484  32.539  60.507  1.00  0.00     0.070 C 
BRANCH  67  68
ATOM     68  C   UNL     1      26.572  34.043  60.705  1.00  0.00    -0.045 A 
ATOM     69  C   UNL     1      27.447  34.837  59.947  1.00  0.00     0.007 A 
ATOM     70  C   UNL     1      25.707  34.683  61.609  1.00  0.00     0.007 A 
ATOM     71  C   UNL     1      27.454  36.232  60.088  1.00  0.00     0.046 A 
ATOM     72  C   UNL     1      25.714  36.074  61.752  1.00  0.00     0.046 A 
ATOM     73  C   UNL     1      26.583  36.839  60.986  1.00  0.00     0.115 A 
BRANCH  73  74
ATOM     74  O   UNL     1      26.539  38.192  61.141  1.00  0.00    -0.508 OA
ATOM     75  H   UNL     1      26.365  38.601  60.278  1.00  0.00     0.293 HD
ENDBRANCH  73  74
ENDBRANCH  67  68
ENDBRANCH  66  67
BRANCH  66  76
ATOM     76  C   UNL     1      24.917  30.844  59.427  1.00  0.00     0.243 C 
ATOM     77  O   UNL     1      23.754  30.969  59.809  1.00  0.00    -0.273 OA
ATOM     78  N   UNL     1      25.419  29.617  59.048  1.00  0.00    -0.345 N 
ATOM     79  H   UNL     1      26.281  29.600  58.505  1.00  0.00     0.164 HD
BRANCH  78  80
ATOM     80  C   UNL     1      24.662  28.383  59.134  1.00  0.00     0.216 C 
BRANCH  80  81
ATOM     81  C   UNL     1      24.931  27.667  60.469  1.00  0.00     0.240 C 
ATOM     82  O   UNL     1      24.063  27.056  61.094  1.00  0.00    -0.273 OA
ATOM     83  N   UNL     1      26.232  27.751  60.918  1.00  0.00    -0.343 N 
ATOM     84  H   UNL     1      26.961  28.015  60.265  1.00  0.00     0.164 HD
BRANCH  83  85
ATOM     85  C   UNL     1      26.649  27.135  62.186  1.00  0.00     0.173 C 
BRANCH  85  86
ATOM     86  C   UNL     1      27.795  26.154  61.866  1.00  0.00     0.240 C 
ATOM     87  N   UNL     1      27.898  25.798  60.550  1.00  0.00    -0.368 N 
ATOM     88  O   UNL     1      28.624  25.768  62.685  1.00  0.00    -0.273 OA
ATOM     89  H   UNL     1      27.462  26.385  59.840  1.00  0.00     0.159 HD
ATOM     90  H   UNL     1      28.702  25.249  60.283  1.00  0.00     0.159 HD
ENDBRANCH  85  86
BRANCH  85  91
ATOM     91  C   UNL     1      27.091  28.200  63.216  1.00  0.00     0.015 C 
ATOM     92  C   UNL     1      26.570  29.591  62.835  1.00  0.00     0.010 C 
ATOM     93  C   UNL     1      26.588  27.860  64.625  1.00  0.00     0.010 C 
ENDBRANCH  85  91
ENDBRANCH  83  85
ENDBRANCH  80  81
ENDBRANCH  78  80
ENDBRANCH  66  76
ENDBRANCH  64  66
ENDBRANCH  55  62
ENDBRANCH  53  55
ENDBRANCH   1  51
TORSDOF 39
ENDMDL
