REMARK SMILES C=C(N[C@H](CCCCNC(=O)C[C@@H](Sc1ccc2ccccc2c1)C(=O)O)C(=O)N[C@H](CCC(=O)O)C(=O)N[C@H](Cc1ccc(O)cc1)C(=O)NCC(=O)N[C@@H](C(N)=O)C(C)C)[C@@H](CCC)NC(=O)[C@@H](NC(=O)CNC)C(C)C
REMARK SMILES IDX 4 1 3 2 2 4 1 5 63 6 64 7 65 8 66 9 67 10 68 11 69 13 70 14
REMARK SMILES IDX 71 15 72 16 73 18 74 19 75 20 76 21 77 23 78 24 79 25 5 26
REMARK SMILES IDX 6 27 7 28 8 29 9 30 10 31 11 33 12 34 13 35 14 36 15 37
REMARK SMILES IDX 16 38 24 39 17 40 23 41 18 42 22 43 19 44 21 45 20 46 25 47
REMARK SMILES IDX 26 48 27 49 28 51 29 52 30 53 31 55 32 56 33 57 34 58 35 59
REMARK SMILES IDX 36 60 37 62 38 63 39 64 40 66 41 67 42 68 43 69 48 70 44 71
REMARK SMILES IDX 47 72 45 73 46 74 49 76 50 77 51 78 52 80 53 81 54 82 55 83
REMARK SMILES IDX 56 85 57 86 58 87 59 88 60 91 61 92 62 93
REMARK H PARENT 3 3 67 12 71 17 75 22 9 32 27 50 30 54 36 61 39 65 46 75 51 79
REMARK H PARENT 55 84 58 89 58 90
REMARK Flexibility Score: inf
ROOT
ATOM      1  C   UNL     1       3.222  -2.479  -4.000  1.00  0.00     0.168 C 
ENDROOT
BRANCH   1   2
ATOM      2  N   UNL     1       4.690  -2.394  -4.275  1.00  0.00    -0.376 N 
ATOM      3  H   UNL     1       5.154  -1.847  -3.528  1.00  0.00     0.161 HD
BRANCH   2   4
ATOM      4  C   UNL     1       5.625  -3.305  -4.783  1.00  0.00     0.027 C 
ATOM      5  C   UNL     1       5.297  -4.557  -5.150  1.00  0.00     0.034 C 
BRANCH   4   6
ATOM      6  C   UNL     1       7.094  -2.835  -5.075  1.00  0.00     0.128 C 
BRANCH   6   7
ATOM      7  C   UNL     1       7.203  -2.037  -6.410  1.00  0.00     0.031 C 
BRANCH   7   8
ATOM      8  C   UNL     1       8.650  -1.687  -6.810  1.00  0.00    -0.001 C 
ATOM      9  C   UNL     1       8.755  -1.034  -8.185  1.00  0.00     0.004 C 
ENDBRANCH   7   8
ENDBRANCH   6   7
BRANCH   6  10
ATOM     10  N   UNL     1       7.873  -2.235  -3.977  1.00  0.00    -0.346 N 
ATOM     11  C   UNL     1       7.535  -1.598  -2.811  1.00  0.00     0.243 C 
ATOM     12  H   UNL     1       8.876  -2.399  -4.063  1.00  0.00     0.164 HD
ATOM     13  O   UNL     1       6.375  -1.485  -2.399  1.00  0.00    -0.273 OA
BRANCH  11  14
ATOM     14  C   UNL     1       8.740  -1.044  -1.968  1.00  0.00     0.173 C 
BRANCH  14  15
ATOM     15  N   UNL     1       9.408  -2.127  -1.231  1.00  0.00    -0.343 N 
ATOM     16  C   UNL     1      10.218  -3.074  -1.804  1.00  0.00     0.234 C 
ATOM     17  H   UNL     1       9.170  -2.282  -0.252  1.00  0.00     0.164 HD
ATOM     18  O   UNL     1      10.395  -3.128  -3.029  1.00  0.00    -0.274 OA
BRANCH  16  19
ATOM     19  C   UNL     1      10.952  -4.004  -0.835  1.00  0.00     0.181 C 
BRANCH  19  20
ATOM     20  N   UNL     1      10.011  -4.661   0.091  1.00  0.00    -0.311 NA
ATOM     21  C   UNL     1      10.737  -5.609   0.942  1.00  0.00     0.101 C 
ATOM     22  H   UNL     1       9.331  -5.189  -0.459  1.00  0.00     0.122 HD
ENDBRANCH  19  20
ENDBRANCH  16  19
ENDBRANCH  14  15
BRANCH  14  23
ATOM     23  C   UNL     1       9.720  -0.125  -2.762  1.00  0.00     0.015 C 
ATOM     24  C   UNL     1       8.986   1.058  -3.407  1.00  0.00     0.010 C 
ATOM     25  C   UNL     1      10.849   0.449  -1.888  1.00  0.00     0.010 C 
ENDBRANCH  14  23
ENDBRANCH  11  14
ENDBRANCH   6  10
ENDBRANCH   4   6
ENDBRANCH   2   4
ENDBRANCH   1   2
BRANCH   1  26
ATOM     26  C   UNL     1       2.764  -3.556  -2.995  1.00  0.00     0.035 C 
BRANCH  26  27
ATOM     27  C   UNL     1       3.365  -3.530  -1.584  1.00  0.00     0.004 C 
BRANCH  27  28
ATOM     28  C   UNL     1       3.078  -2.255  -0.785  1.00  0.00     0.021 C 
BRANCH  28  29
ATOM     29  C   UNL     1       3.696  -2.347   0.611  1.00  0.00     0.116 C 
BRANCH  29  30
ATOM     30  N   UNL     1       3.503  -1.137   1.381  1.00  0.00    -0.356 N 
ATOM     31  C   UNL     1       4.029  -1.018   2.652  1.00  0.00     0.221 C 
ATOM     32  H   UNL     1       2.981  -0.368   0.979  1.00  0.00     0.163 HD
ATOM     33  O   UNL     1       4.618  -1.926   3.226  1.00  0.00    -0.275 OA
BRANCH  31  34
ATOM     34  C   UNL     1       3.775   0.327   3.291  1.00  0.00     0.126 C 
BRANCH  34  35
ATOM     35  C   UNL     1       4.880   0.723   4.268  1.00  0.00     0.170 C 
BRANCH  35  36
ATOM     36  S   UNL     1       6.574   0.864   3.518  1.00  0.00    -0.110 SA
BRANCH  36  37
ATOM     37  C   UNL     1       6.365   2.126   2.275  1.00  0.00     0.009 A 
ATOM     38  C   UNL     1       6.655   3.459   2.573  1.00  0.00     0.016 A 
ATOM     39  C   UNL     1       6.064   1.770   0.957  1.00  0.00     0.023 A 
ATOM     40  C   UNL     1       6.654   4.428   1.565  1.00  0.00     0.010 A 
ATOM     41  C   UNL     1       6.065   2.730  -0.068  1.00  0.00    -0.017 A 
ATOM     42  C   UNL     1       6.384   4.075   0.238  1.00  0.00    -0.018 A 
ATOM     43  C   UNL     1       5.787   2.383  -1.400  1.00  0.00     0.009 A 
ATOM     44  C   UNL     1       6.451   5.020  -0.797  1.00  0.00     0.009 A 
ATOM     45  C   UNL     1       5.857   3.338  -2.416  1.00  0.00     0.001 A 
ATOM     46  C   UNL     1       6.201   4.652  -2.115  1.00  0.00     0.001 A 
ENDBRANCH  36  37
ENDBRANCH  35  36
BRANCH  35  47
ATOM     47  C   UNL     1       4.507   1.997   5.017  1.00  0.00     0.317 C 
ATOM     48  O   UNL     1       3.359   2.380   5.194  1.00  0.00    -0.251 OA
BRANCH  47  49
ATOM     49  O   UNL     1       5.561   2.654   5.561  1.00  0.00    -0.480 OA
ATOM     50  H   UNL     1       6.407   2.225   5.311  1.00  0.00     0.296 HD
ENDBRANCH  47  49
ENDBRANCH  35  47
ENDBRANCH  34  35
ENDBRANCH  31  34
ENDBRANCH  29  30
ENDBRANCH  28  29
ENDBRANCH  27  28
ENDBRANCH  26  27
ENDBRANCH   1  26
BRANCH   1  51
ATOM     51  C   UNL     1       2.310  -2.547  -5.274  1.00  0.00     0.243 C 
ATOM     52  O   UNL     1       1.095  -2.361  -5.199  1.00  0.00    -0.273 OA
ATOM     53  N   UNL     1       2.907  -2.913  -6.449  1.00  0.00    -0.343 N 
ATOM     54  H   UNL     1       3.918  -2.844  -6.383  1.00  0.00     0.164 HD
BRANCH  53  55
ATOM     55  C   UNL     1       2.361  -2.896  -7.815  1.00  0.00     0.172 C 
BRANCH  55  56
ATOM     56  C   UNL     1       2.323  -1.504  -8.464  1.00  0.00     0.047 C 
BRANCH  56  57
ATOM     57  C   UNL     1       3.623  -0.729  -8.337  1.00  0.00     0.125 C 
BRANCH  57  58
ATOM     58  C   UNL     1       3.576   0.532  -9.158  1.00  0.00     0.303 C 
ATOM     59  O   UNL     1       3.265   1.618  -8.723  1.00  0.00    -0.252 OA
BRANCH  58  60
ATOM     60  O   UNL     1       3.908   0.360 -10.460  1.00  0.00    -0.481 OA
ATOM     61  H   UNL     1       3.391  -0.350 -10.876  1.00  0.00     0.296 HD
ENDBRANCH  58  60
ENDBRANCH  57  58
ENDBRANCH  56  57
ENDBRANCH  55  56
BRANCH  55  62
ATOM     62  C   UNL     1       1.017  -3.584  -8.179  1.00  0.00     0.243 C 
ATOM     63  O   UNL     1       0.802  -3.973  -9.330  1.00  0.00    -0.273 OA
ATOM     64  N   UNL     1       0.023  -3.570  -7.247  1.00  0.00    -0.342 N 
ATOM     65  H   UNL     1       0.222  -3.121  -6.353  1.00  0.00     0.164 HD
BRANCH  64  66
ATOM     66  C   UNL     1      -1.387  -3.859  -7.555  1.00  0.00     0.175 C 
BRANCH  66  67
ATOM     67  C   UNL     1      -2.328  -3.194  -6.524  1.00  0.00     0.070 C 
BRANCH  67  68
ATOM     68  C   UNL     1      -2.253  -1.679  -6.421  1.00  0.00    -0.045 A 
ATOM     69  C   UNL     1      -2.571  -0.849  -7.507  1.00  0.00     0.007 A 
ATOM     70  C   UNL     1      -1.936  -1.075  -5.192  1.00  0.00     0.007 A 
ATOM     71  C   UNL     1      -2.575   0.546  -7.367  1.00  0.00     0.046 A 
ATOM     72  C   UNL     1      -1.938   0.316  -5.052  1.00  0.00     0.046 A 
ATOM     73  C   UNL     1      -2.263   1.116  -6.138  1.00  0.00     0.115 A 
BRANCH  73  74
ATOM     74  O   UNL     1      -2.275   2.466  -5.950  1.00  0.00    -0.508 OA
ATOM     75  H   UNL     1      -2.511   2.897  -6.787  1.00  0.00     0.293 HD
ENDBRANCH  73  74
ENDBRANCH  67  68
ENDBRANCH  66  67
BRANCH  66  76
ATOM     76  C   UNL     1      -1.650  -5.396  -7.612  1.00  0.00     0.243 C 
ATOM     77  O   UNL     1      -2.693  -5.914  -7.216  1.00  0.00    -0.273 OA
ATOM     78  N   UNL     1      -0.694  -6.131  -8.280  1.00  0.00    -0.345 N 
ATOM     79  H   UNL     1       0.017  -5.625  -8.808  1.00  0.00     0.164 HD
BRANCH  78  80
ATOM     80  C   UNL     1      -0.797  -7.560  -8.504  1.00  0.00     0.216 C 
BRANCH  80  81
ATOM     81  C   UNL     1       0.500  -8.113  -9.121  1.00  0.00     0.240 C 
ATOM     82  O   UNL     1       1.538  -7.456  -9.211  1.00  0.00    -0.273 OA
ATOM     83  N   UNL     1       0.419  -9.416  -9.565  1.00  0.00    -0.343 N 
ATOM     84  H   UNL     1      -0.340 -10.001  -9.234  1.00  0.00     0.164 HD
BRANCH  83  85
ATOM     85  C   UNL     1       1.566 -10.086 -10.195  1.00  0.00     0.173 C 
BRANCH  85  86
ATOM     86  C   UNL     1       2.432 -10.678  -9.064  1.00  0.00     0.240 C 
ATOM     87  N   UNL     1       3.384  -9.833  -8.566  1.00  0.00    -0.368 N 
ATOM     88  O   UNL     1       2.254 -11.785  -8.564  1.00  0.00    -0.273 OA
ATOM     89  H   UNL     1       3.289  -8.830  -8.718  1.00  0.00     0.159 HD
ATOM     90  H   UNL     1       3.894 -10.143  -7.751  1.00  0.00     0.159 HD
ENDBRANCH  85  86
BRANCH  85  91
ATOM     91  C   UNL     1       1.108 -11.182 -11.185  1.00  0.00     0.015 C 
ATOM     92  C   UNL     1       0.206 -10.600 -12.280  1.00  0.00     0.010 C 
ATOM     93  C   UNL     1       2.307 -11.868 -11.855  1.00  0.00     0.010 C 
ENDBRANCH  85  91
ENDBRANCH  83  85
ENDBRANCH  80  81
ENDBRANCH  78  80
ENDBRANCH  66  76
ENDBRANCH  64  66
ENDBRANCH  55  62
ENDBRANCH  53  55
ENDBRANCH   1  51
TORSDOF 39
