MODEL 1
REMARK VINA RESULT:    -6.762      0.000      0.000
REMARK INTER + INTRA:         -23.484
REMARK INTER:                 -20.006
REMARK INTRA:                  -3.478
REMARK UNBOUND:                -3.478
REMARK SMILES [H]/N=C(\N)NCCCC[C@@H]1NC(=O)CCCCCCC(=O)NCCCCC[C@@H](C(N)=O)NC(=O)[C@@H](CCCCNC(=S)NCCC(=O)O)NC1=O
REMARK SMILES IDX 36 1 35 2 49 3 50 4 51 5 10 7 9 8 8 9 7 10 6 11 5 12 2 13
REMARK SMILES IDX 3 14 1 15 4 16 11 20 12 21 13 23 14 24 15 25 16 26 17 27
REMARK SMILES IDX 18 28 33 30 34 31 32 32 28 34 27 35 26 36 25 37 24 38 23 39
REMARK SMILES IDX 22 40 20 41 21 43 19 44 29 46 30 47 31 48 37 51 38 52 39 53
REMARK SMILES IDX 40 54 41 56 42 57 43 58 44 60 45 61 46 62 47 63 48 64
REMARK H PARENT 49 6 4 17 4 18 5 19 11 22 32 33 22 42 30 49 30 50 40 55 43 59
REMARK H PARENT 48 65
REMARK Flexibility Score: 80.00
ROOT
ATOM      1  C   UNL     1      28.955  33.986  57.452  1.00  0.00     0.035 C 
ENDROOT
BRANCH   1   2
ATOM      2  C   UNL     1      28.440  32.587  57.051  1.00  0.00     0.171 C 
BRANCH   2   3
ATOM      3  N   UNL     1      27.074  32.212  57.557  1.00  0.00    -0.343 N 
ATOM      4  C   UNL     1      26.809  31.874  58.849  1.00  0.00     0.243 C 
ATOM      5  O   UNL     1      27.710  31.299  59.465  1.00  0.00    -0.273 OA
ATOM      6  H   UNL     1      26.698  31.509  56.928  1.00  0.00     0.164 HD
BRANCH   4   7
ATOM      7  C   UNL     1      25.371  31.760  59.494  1.00  0.00     0.171 C 
BRANCH   7   8
ATOM      8  C   UNL     1      25.468  32.763  60.761  1.00  0.00     0.035 C 
BRANCH   8   9
ATOM      9  C   UNL     1      26.416  34.050  60.812  1.00  0.00     0.004 C 
BRANCH   9  10
ATOM     10  C   UNL     1      25.626  35.399  60.817  1.00  0.00     0.021 C 
BRANCH  10  11
ATOM     11  C   UNL     1      24.654  35.653  59.634  1.00  0.00     0.116 C 
BRANCH  11  12
ATOM     12  N   UNL     1      25.335  35.492  58.340  1.00  0.00    -0.357 N 
ATOM     13  N   UNL     1      25.414  34.439  56.315  1.00  0.00    -0.270 NA
ATOM     14  C   UNL     1      24.773  35.232  57.134  1.00  0.00     0.185 C 
ATOM     15  H   UNL     1      24.832  34.336  55.459  1.00  0.00     0.191 HD
ATOM     16  N   UNL     1      23.613  35.862  56.855  1.00  0.00    -0.370 N 
ATOM     17  H   UNL     1      23.406  35.877  55.848  1.00  0.00     0.159 HD
ATOM     18  H   UNL     1      23.632  36.823  57.198  1.00  0.00     0.159 HD
ATOM     19  H   UNL     1      26.189  34.943  58.432  1.00  0.00     0.163 HD
ENDBRANCH  11  12
ENDBRANCH  10  11
ENDBRANCH   9  10
ENDBRANCH   8   9
ENDBRANCH   7   8
BRANCH   7  20
ATOM     20  N   UNL     1      24.439  30.498  59.826  1.00  0.00    -0.344 N 
ATOM     21  C   UNL     1      24.701  29.337  60.582  1.00  0.00     0.220 C 
ATOM     22  H   UNL     1      24.089  30.146  58.944  1.00  0.00     0.164 HD
ATOM     23  O   UNL     1      25.809  29.179  61.100  1.00  0.00    -0.275 OA
BRANCH  21  24
ATOM     24  C   UNL     1      23.525  28.214  60.906  1.00  0.00     0.100 C 
BRANCH  24  25
ATOM     25  C   UNL     1      23.574  26.647  61.052  1.00  0.00     0.010 C 
BRANCH  25  26
ATOM     26  C   UNL     1      24.958  26.009  60.924  1.00  0.00     0.001 C 
BRANCH  26  27
ATOM     27  C   UNL     1      25.793  25.959  62.235  1.00  0.00     0.001 C 
BRANCH  27  28
ATOM     28  C   UNL     1      26.705  24.787  61.994  1.00  0.00     0.010 CG0
ATOM     29  G   UNL     1      26.415  23.322  62.002  1.00  0.00     0.000 G0
ENDBRANCH  27  28
ENDBRANCH  26  27
ENDBRANCH  25  26
ENDBRANCH  24  25
ENDBRANCH  21  24
ENDBRANCH   7  20
ENDBRANCH   4   7
ENDBRANCH   2   3
BRANCH   2  30
ATOM     30  C   UNL     1      28.273  32.429  55.495  1.00  0.00     0.243 C 
ATOM     31  O   UNL     1      27.207  32.698  54.942  1.00  0.00    -0.273 OA
ATOM     32  N   UNL     1      29.443  32.289  54.776  1.00  0.00    -0.343 N 
ATOM     33  H   UNL     1      30.273  31.888  55.201  1.00  0.00     0.164 HD
BRANCH  32  34
ATOM     34  C   UNL     1      29.662  32.937  53.479  1.00  0.00     0.171 C 
BRANCH  34  35
ATOM     35  C   UNL     1      31.161  33.299  53.285  1.00  0.00     0.035 C 
BRANCH  35  36
ATOM     36  C   UNL     1      31.339  34.446  52.282  1.00  0.00     0.003 C 
BRANCH  36  37
ATOM     37  C   UNL     1      31.909  34.096  50.917  1.00  0.00     0.002 C 
BRANCH  37  38
ATOM     38  C   UNL     1      31.418  35.089  49.817  1.00  0.00     0.021 C 
BRANCH  38  39
ATOM     39  C   UNL     1      32.263  34.945  48.549  1.00  0.00     0.116 C 
BRANCH  39  40
ATOM     40  N   UNL     1      32.989  33.689  48.295  1.00  0.00    -0.356 N 
ATOM     41  C   UNL     1      34.150  33.407  47.602  1.00  0.00     0.219 C 
ATOM     42  H   UNL     1      32.514  32.829  48.534  1.00  0.00     0.163 HD
ATOM     43  O   UNL     1      34.414  32.209  47.427  1.00  0.00    -0.275 OA
BRANCH  41  44
ATOM     44  C   UNL     1      35.154  34.469  47.055  1.00  0.00     0.100 CG0
ATOM     45  G   UNL     1      34.698  35.855  47.378  1.00  0.00     0.000 G0
ENDBRANCH  41  44
ENDBRANCH  39  40
ENDBRANCH  38  39
ENDBRANCH  37  38
ENDBRANCH  36  37
ENDBRANCH  35  36
ENDBRANCH  34  35
BRANCH  34  46
ATOM     46  C   UNL     1      29.212  31.973  52.381  1.00  0.00     0.240 C 
ATOM     47  N   UNL     1      27.969  32.194  51.853  1.00  0.00    -0.368 N 
ATOM     48  O   UNL     1      29.916  31.066  51.928  1.00  0.00    -0.273 OA
ATOM     49  H   UNL     1      27.304  32.827  52.261  1.00  0.00     0.159 HD
ATOM     50  H   UNL     1      27.648  31.539  51.154  1.00  0.00     0.159 HD
ENDBRANCH  34  46
ENDBRANCH  32  34
ENDBRANCH   2  30
ENDBRANCH   1   2
BRANCH   1  51
ATOM     51  C   UNL     1      29.728  34.156  58.775  1.00  0.00     0.004 C 
BRANCH  51  52
ATOM     52  C   UNL     1      31.255  34.292  58.680  1.00  0.00     0.021 C 
BRANCH  52  53
ATOM     53  C   UNL     1      31.770  35.004  59.925  1.00  0.00     0.115 C 
BRANCH  53  54
ATOM     54  N   UNL     1      31.571  36.443  59.934  1.00  0.00    -0.363 N 
ATOM     55  H   UNL     1      30.690  36.771  60.305  1.00  0.00     0.162 HD
BRANCH  54  56
ATOM     56  C   UNL     1      32.466  37.388  59.476  1.00  0.00     0.166 C 
ATOM     57  S   UNL     1      34.087  37.127  59.183  1.00  0.00    -0.041 S 
BRANCH  56  58
ATOM     58  N   UNL     1      31.856  38.624  59.400  1.00  0.00    -0.362 N 
ATOM     59  H   UNL     1      30.986  38.708  59.910  1.00  0.00     0.162 HD
BRANCH  58  60
ATOM     60  C   UNL     1      32.150  39.704  58.455  1.00  0.00     0.127 C 
BRANCH  60  61
ATOM     61  C   UNL     1      31.882  41.070  59.060  1.00  0.00     0.143 C 
BRANCH  61  62
ATOM     62  C   UNL     1      31.632  41.116  60.549  1.00  0.00     0.305 C 
ATOM     63  O   UNL     1      30.624  41.635  61.013  1.00  0.00    -0.252 OA
BRANCH  62  64
ATOM     64  O   UNL     1      32.539  40.521  61.343  1.00  0.00    -0.481 OA
ATOM     65  H   UNL     1      32.219  40.233  62.223  1.00  0.00     0.296 HD
ENDBRANCH  62  64
ENDBRANCH  61  62
ENDBRANCH  60  61
ENDBRANCH  58  60
ENDBRANCH  56  58
ENDBRANCH  54  56
ENDBRANCH  53  54
ENDBRANCH  52  53
ENDBRANCH  51  52
ENDBRANCH   1  51
TORSDOF 17
ENDMDL
MODEL 2
REMARK VINA RESULT:    -6.720      3.736      6.635
REMARK INTER + INTRA:         -23.358
REMARK INTER:                 -19.680
REMARK INTRA:                  -3.677
REMARK UNBOUND:                -3.478
REMARK SMILES [H]/N=C(\N)NCCCC[C@@H]1NC(=O)CCCCCCC(=O)NCCCCC[C@@H](C(N)=O)NC(=O)[C@@H](CCCCNC(=S)NCCC(=O)O)NC1=O
REMARK SMILES IDX 36 1 35 2 49 3 50 4 51 5 10 7 9 8 8 9 7 10 6 11 5 12 2 13
REMARK SMILES IDX 3 14 1 15 4 16 11 20 12 21 13 23 14 24 15 25 16 26 17 27
REMARK SMILES IDX 18 28 33 30 34 31 32 32 28 34 27 35 26 36 25 37 24 38 23 39
REMARK SMILES IDX 22 40 20 41 21 43 19 44 29 46 30 47 31 48 37 51 38 52 39 53
REMARK SMILES IDX 40 54 41 56 42 57 43 58 44 60 45 61 46 62 47 63 48 64
REMARK H PARENT 49 6 4 17 4 18 5 19 11 22 32 33 22 42 30 49 30 50 40 55 43 59
REMARK H PARENT 48 65
REMARK Flexibility Score: 80.00
ROOT
ATOM      1  C   UNL     1      26.206  33.854  56.838  1.00  0.00     0.035 C 
ENDROOT
BRANCH   1   2
ATOM      2  C   UNL     1      27.687  33.625  56.467  1.00  0.00     0.171 C 
BRANCH   2   3
ATOM      3  N   UNL     1      28.422  32.591  57.277  1.00  0.00    -0.343 N 
ATOM      4  C   UNL     1      29.571  32.841  57.964  1.00  0.00     0.243 C 
ATOM      5  O   UNL     1      30.331  33.683  57.481  1.00  0.00    -0.273 OA
ATOM      6  H   UNL     1      28.537  31.771  56.690  1.00  0.00     0.164 HD
BRANCH   4   7
ATOM      7  C   UNL     1      30.216  31.893  59.051  1.00  0.00     0.171 C 
BRANCH   7   8
ATOM      8  C   UNL     1      28.923  31.316  59.834  1.00  0.00     0.035 C 
BRANCH   8   9
ATOM      9  C   UNL     1      28.944  30.005  60.751  1.00  0.00     0.004 C 
BRANCH   9  10
ATOM     10  C   UNL     1      27.695  29.884  61.683  1.00  0.00     0.021 C 
BRANCH  10  11
ATOM     11  C   UNL     1      26.996  28.500  61.753  1.00  0.00     0.116 C 
BRANCH  11  12
ATOM     12  N   UNL     1      25.780  28.474  60.925  1.00  0.00    -0.357 N 
ATOM     13  N   UNL     1      24.287  27.235  59.721  1.00  0.00    -0.270 NA
ATOM     14  C   UNL     1      24.829  27.509  60.879  1.00  0.00     0.185 C 
ATOM     15  H   UNL     1      23.604  26.465  59.869  1.00  0.00     0.191 HD
ATOM     16  N   UNL     1      24.479  26.943  62.053  1.00  0.00    -0.370 N 
ATOM     17  H   UNL     1      23.567  26.469  62.004  1.00  0.00     0.159 HD
ATOM     18  H   UNL     1      24.441  27.644  62.795  1.00  0.00     0.159 HD
ATOM     19  H   UNL     1      25.964  28.802  59.978  1.00  0.00     0.163 HD
ENDBRANCH  11  12
ENDBRANCH  10  11
ENDBRANCH   9  10
ENDBRANCH   8   9
ENDBRANCH   7   8
BRANCH   7  20
ATOM     20  N   UNL     1      31.456  32.091  60.049  1.00  0.00    -0.344 N 
ATOM     21  C   UNL     1      32.411  31.167  60.520  1.00  0.00     0.220 C 
ATOM     22  H   UNL     1      31.096  32.525  60.889  1.00  0.00     0.164 HD
ATOM     23  O   UNL     1      32.351  29.987  60.165  1.00  0.00    -0.275 OA
BRANCH  21  24
ATOM     24  C   UNL     1      33.701  31.633  61.452  1.00  0.00     0.100 C 
BRANCH  24  25
ATOM     25  C   UNL     1      34.213  31.152  62.862  1.00  0.00     0.010 C 
BRANCH  25  26
ATOM     26  C   UNL     1      33.284  31.440  64.042  1.00  0.00     0.001 C 
BRANCH  26  27
ATOM     27  C   UNL     1      33.339  30.404  65.201  1.00  0.00     0.001 C 
BRANCH  27  28
ATOM     28  C   UNL     1      31.910  29.943  65.293  1.00  0.00     0.010 CG0
ATOM     29  G   UNL     1      31.108  29.521  66.480  1.00  0.00     0.000 G0
ENDBRANCH  27  28
ENDBRANCH  26  27
ENDBRANCH  25  26
ENDBRANCH  24  25
ENDBRANCH  21  24
ENDBRANCH   7  20
ENDBRANCH   4   7
ENDBRANCH   2   3
BRANCH   2  30
ATOM     30  C   UNL     1      27.867  33.087  55.000  1.00  0.00     0.243 C 
ATOM     31  O   UNL     1      27.010  33.295  54.141  1.00  0.00    -0.273 OA
ATOM     32  N   UNL     1      29.138  32.669  54.664  1.00  0.00    -0.343 N 
ATOM     33  H   UNL     1      29.778  32.322  55.371  1.00  0.00     0.164 HD
BRANCH  32  34
ATOM     34  C   UNL     1      29.747  32.941  53.358  1.00  0.00     0.171 C 
BRANCH  34  35
ATOM     35  C   UNL     1      31.297  32.929  53.453  1.00  0.00     0.035 C 
BRANCH  35  36
ATOM     36  C   UNL     1      31.924  34.042  52.606  1.00  0.00     0.003 C 
BRANCH  36  37
ATOM     37  C   UNL     1      30.996  34.832  51.696  1.00  0.00     0.002 C 
BRANCH  37  38
ATOM     38  C   UNL     1      30.904  34.195  50.274  1.00  0.00     0.021 C 
BRANCH  38  39
ATOM     39  C   UNL     1      32.282  34.176  49.606  1.00  0.00     0.116 C 
BRANCH  39  40
ATOM     40  N   UNL     1      32.383  33.996  48.149  1.00  0.00    -0.356 N 
ATOM     41  C   UNL     1      32.708  34.862  47.123  1.00  0.00     0.219 C 
ATOM     42  H   UNL     1      32.022  33.132  47.767  1.00  0.00     0.163 HD
ATOM     43  O   UNL     1      32.539  34.443  45.969  1.00  0.00    -0.275 OA
BRANCH  41  44
ATOM     44  C   UNL     1      33.289  36.298  47.306  1.00  0.00     0.100 CG0
ATOM     45  G   UNL     1      34.423  36.542  46.365  1.00  0.00     0.000 G0
ENDBRANCH  41  44
ENDBRANCH  39  40
ENDBRANCH  38  39
ENDBRANCH  37  38
ENDBRANCH  36  37
ENDBRANCH  35  36
ENDBRANCH  34  35
BRANCH  34  46
ATOM     46  C   UNL     1      29.276  31.866  52.378  1.00  0.00     0.240 C 
ATOM     47  N   UNL     1      28.207  32.192  51.589  1.00  0.00    -0.368 N 
ATOM     48  O   UNL     1      29.830  30.772  52.236  1.00  0.00    -0.273 OA
ATOM     49  H   UNL     1      27.639  33.006  51.743  1.00  0.00     0.159 HD
ATOM     50  H   UNL     1      27.865  31.474  50.965  1.00  0.00     0.159 HD
ENDBRANCH  34  46
ENDBRANCH  32  34
ENDBRANCH   2  30
ENDBRANCH   1   2
BRANCH   1  51
ATOM     51  C   UNL     1      25.786  35.191  57.478  1.00  0.00     0.004 C 
BRANCH  51  52
ATOM     52  C   UNL     1      24.284  35.512  57.505  1.00  0.00     0.021 C 
BRANCH  52  53
ATOM     53  C   UNL     1      23.970  36.322  58.757  1.00  0.00     0.115 C 
BRANCH  53  54
ATOM     54  N   UNL     1      24.050  35.579  60.003  1.00  0.00    -0.363 N 
ATOM     55  H   UNL     1      23.263  34.985  60.221  1.00  0.00     0.162 HD
BRANCH  54  56
ATOM     56  C   UNL     1      25.091  35.622  60.907  1.00  0.00     0.166 C 
ATOM     57  S   UNL     1      26.312  36.759  60.927  1.00  0.00    -0.041 S 
BRANCH  56  58
ATOM     58  N   UNL     1      25.049  34.518  61.735  1.00  0.00    -0.362 N 
ATOM     59  H   UNL     1      24.534  34.645  62.597  1.00  0.00     0.162 HD
BRANCH  58  60
ATOM     60  C   UNL     1      25.886  33.318  61.659  1.00  0.00     0.127 C 
BRANCH  60  61
ATOM     61  C   UNL     1      25.934  32.753  60.251  1.00  0.00     0.143 C 
BRANCH  61  62
ATOM     62  C   UNL     1      24.709  32.006  59.778  1.00  0.00     0.305 C 
ATOM     63  O   UNL     1      24.769  30.833  59.427  1.00  0.00    -0.252 OA
BRANCH  62  64
ATOM     64  O   UNL     1      23.538  32.667  59.802  1.00  0.00    -0.481 OA
ATOM     65  H   UNL     1      22.792  32.207  60.241  1.00  0.00     0.296 HD
ENDBRANCH  62  64
ENDBRANCH  61  62
ENDBRANCH  60  61
ENDBRANCH  58  60
ENDBRANCH  56  58
ENDBRANCH  54  56
ENDBRANCH  53  54
ENDBRANCH  52  53
ENDBRANCH  51  52
ENDBRANCH   1  51
TORSDOF 17
ENDMDL
MODEL 3
REMARK VINA RESULT:    -6.567      3.526      5.849
REMARK INTER + INTRA:         -22.906
REMARK INTER:                 -18.885
REMARK INTRA:                  -4.020
REMARK UNBOUND:                -3.478
REMARK SMILES [H]/N=C(\N)NCCCC[C@@H]1NC(=O)CCCCCCC(=O)NCCCCC[C@@H](C(N)=O)NC(=O)[C@@H](CCCCNC(=S)NCCC(=O)O)NC1=O
REMARK SMILES IDX 36 1 35 2 49 3 50 4 51 5 10 7 9 8 8 9 7 10 6 11 5 12 2 13
REMARK SMILES IDX 3 14 1 15 4 16 11 20 12 21 13 23 14 24 15 25 16 26 17 27
REMARK SMILES IDX 18 28 33 30 34 31 32 32 28 34 27 35 26 36 25 37 24 38 23 39
REMARK SMILES IDX 22 40 20 41 21 43 19 44 29 46 30 47 31 48 37 51 38 52 39 53
REMARK SMILES IDX 40 54 41 56 42 57 43 58 44 60 45 61 46 62 47 63 48 64
REMARK H PARENT 49 6 4 17 4 18 5 19 11 22 32 33 22 42 30 49 30 50 40 55 43 59
REMARK H PARENT 48 65
REMARK Flexibility Score: 80.00
ROOT
ATOM      1  C   UNL     1      26.015  34.065  56.749  1.00  0.00     0.035 C 
ENDROOT
BRANCH   1   2
ATOM      2  C   UNL     1      27.451  33.512  56.618  1.00  0.00     0.171 C 
BRANCH   2   3
ATOM      3  N   UNL     1      27.803  32.358  57.517  1.00  0.00    -0.343 N 
ATOM      4  C   UNL     1      28.331  32.500  58.763  1.00  0.00     0.243 C 
ATOM      5  O   UNL     1      29.066  33.473  58.944  1.00  0.00    -0.273 OA
ATOM      6  H   UNL     1      28.361  31.707  56.973  1.00  0.00     0.164 HD
BRANCH   4   7
ATOM      7  C   UNL     1      28.443  31.358  59.850  1.00  0.00     0.171 C 
BRANCH   7   8
ATOM      8  C   UNL     1      30.015  30.974  59.803  1.00  0.00     0.035 C 
BRANCH   8   9
ATOM      9  C   UNL     1      30.615  29.592  60.340  1.00  0.00     0.004 C 
BRANCH   9  10
ATOM     10  C   UNL     1      31.372  29.735  61.700  1.00  0.00     0.021 C 
BRANCH  10  11
ATOM     11  C   UNL     1      32.873  30.123  61.637  1.00  0.00     0.116 C 
BRANCH  11  12
ATOM     12  N   UNL     1      33.043  31.557  61.357  1.00  0.00    -0.357 N 
ATOM     13  N   UNL     1      34.468  33.289  60.927  1.00  0.00    -0.270 NA
ATOM     14  C   UNL     1      33.962  32.142  60.551  1.00  0.00     0.185 C 
ATOM     15  H   UNL     1      35.164  33.574  60.208  1.00  0.00     0.191 HD
ATOM     16  N   UNL     1      34.243  31.513  59.392  1.00  0.00    -0.370 N 
ATOM     17  H   UNL     1      34.688  32.136  58.704  1.00  0.00     0.159 HD
ATOM     18  H   UNL     1      33.396  31.123  58.978  1.00  0.00     0.159 HD
ATOM     19  H   UNL     1      32.937  32.119  62.202  1.00  0.00     0.163 HD
ENDBRANCH  11  12
ENDBRANCH  10  11
ENDBRANCH   9  10
ENDBRANCH   8   9
ENDBRANCH   7   8
BRANCH   7  20
ATOM     20  N   UNL     1      27.542  30.066  60.149  1.00  0.00    -0.344 N 
ATOM     21  C   UNL     1      27.173  29.467  61.372  1.00  0.00     0.220 C 
ATOM     22  H   UNL     1      27.923  29.304  59.605  1.00  0.00     0.164 HD
ATOM     23  O   UNL     1      27.577  29.944  62.435  1.00  0.00    -0.275 OA
BRANCH  21  24
ATOM     24  C   UNL     1      26.108  28.199  61.444  1.00  0.00     0.100 C 
BRANCH  24  25
ATOM     25  C   UNL     1      26.288  26.654  61.199  1.00  0.00     0.010 C 
BRANCH  25  26
ATOM     26  C   UNL     1      27.692  26.100  61.447  1.00  0.00     0.001 C 
BRANCH  26  27
ATOM     27  C   UNL     1      28.059  25.855  62.939  1.00  0.00     0.001 C 
BRANCH  27  28
ATOM     28  C   UNL     1      26.836  25.151  63.462  1.00  0.00     0.010 CG0
ATOM     29  G   UNL     1      26.154  23.915  62.973  1.00  0.00     0.000 G0
ENDBRANCH  27  28
ENDBRANCH  26  27
ENDBRANCH  25  26
ENDBRANCH  24  25
ENDBRANCH  21  24
ENDBRANCH   7  20
ENDBRANCH   4   7
ENDBRANCH   2   3
BRANCH   2  30
ATOM     30  C   UNL     1      27.743  32.921  55.189  1.00  0.00     0.243 C 
ATOM     31  O   UNL     1      27.001  33.168  54.239  1.00  0.00    -0.273 OA
ATOM     32  N   UNL     1      29.007  32.401  55.001  1.00  0.00    -0.343 N 
ATOM     33  H   UNL     1      29.540  32.027  55.779  1.00  0.00     0.164 HD
BRANCH  32  34
ATOM     34  C   UNL     1      29.769  32.591  53.763  1.00  0.00     0.171 C 
BRANCH  34  35
ATOM     35  C   UNL     1      31.288  32.733  54.060  1.00  0.00     0.035 C 
BRANCH  35  36
ATOM     36  C   UNL     1      31.969  33.690  53.074  1.00  0.00     0.003 C 
BRANCH  36  37
ATOM     37  C   UNL     1      31.074  34.635  52.288  1.00  0.00     0.002 C 
BRANCH  37  38
ATOM     38  C   UNL     1      31.819  35.245  51.060  1.00  0.00     0.021 C 
BRANCH  38  39
ATOM     39  C   UNL     1      31.448  34.492  49.779  1.00  0.00     0.116 C 
BRANCH  39  40
ATOM     40  N   UNL     1      32.473  33.707  49.072  1.00  0.00    -0.356 N 
ATOM     41  C   UNL     1      32.922  33.722  47.765  1.00  0.00     0.219 C 
ATOM     42  H   UNL     1      32.846  32.899  49.554  1.00  0.00     0.163 HD
ATOM     43  O   UNL     1      33.690  32.809  47.433  1.00  0.00    -0.275 OA
BRANCH  41  44
ATOM     44  C   UNL     1      32.561  34.803  46.701  1.00  0.00     0.100 CG0
ATOM     45  G   UNL     1      33.643  35.826  46.586  1.00  0.00     0.000 G0
ENDBRANCH  41  44
ENDBRANCH  39  40
ENDBRANCH  38  39
ENDBRANCH  37  38
ENDBRANCH  36  37
ENDBRANCH  35  36
ENDBRANCH  34  35
BRANCH  34  46
ATOM     46  C   UNL     1      29.526  31.381  52.860  1.00  0.00     0.240 C 
ATOM     47  N   UNL     1      28.786  30.363  53.398  1.00  0.00    -0.368 N 
ATOM     48  O   UNL     1      29.913  31.304  51.691  1.00  0.00    -0.273 OA
ATOM     49  H   UNL     1      28.556  30.308  54.374  1.00  0.00     0.159 HD
ATOM     50  H   UNL     1      28.654  29.543  52.823  1.00  0.00     0.159 HD
ENDBRANCH  34  46
ENDBRANCH  32  34
ENDBRANCH   2  30
ENDBRANCH   1   2
BRANCH   1  51
ATOM     51  C   UNL     1      25.728  35.186  57.766  1.00  0.00     0.004 C 
BRANCH  51  52
ATOM     52  C   UNL     1      24.362  35.882  57.672  1.00  0.00     0.021 C 
BRANCH  52  53
ATOM     53  C   UNL     1      24.101  36.644  58.966  1.00  0.00     0.115 C 
BRANCH  53  54
ATOM     54  N   UNL     1      24.182  35.843  60.175  1.00  0.00    -0.363 N 
ATOM     55  H   UNL     1      23.449  35.161  60.310  1.00  0.00     0.162 HD
BRANCH  54  56
ATOM     56  C   UNL     1      25.157  35.938  61.147  1.00  0.00     0.166 C 
ATOM     57  S   UNL     1      26.172  37.241  61.377  1.00  0.00    -0.041 S 
BRANCH  56  58
ATOM     58  N   UNL     1      25.255  34.749  61.841  1.00  0.00    -0.362 N 
ATOM     59  H   UNL     1      24.947  34.786  62.805  1.00  0.00     0.162 HD
BRANCH  58  60
ATOM     60  C   UNL     1      26.008  33.554  61.454  1.00  0.00     0.127 C 
BRANCH  60  61
ATOM     61  C   UNL     1      25.093  32.367  61.211  1.00  0.00     0.143 C 
BRANCH  61  62
ATOM     62  C   UNL     1      24.556  32.200  59.809  1.00  0.00     0.305 C 
ATOM     63  O   UNL     1      24.993  31.340  59.054  1.00  0.00    -0.252 OA
BRANCH  62  64
ATOM     64  O   UNL     1      23.543  33.003  59.439  1.00  0.00    -0.481 OA
ATOM     65  H   UNL     1      23.678  33.962  59.587  1.00  0.00     0.296 HD
ENDBRANCH  62  64
ENDBRANCH  61  62
ENDBRANCH  60  61
ENDBRANCH  58  60
ENDBRANCH  56  58
ENDBRANCH  54  56
ENDBRANCH  53  54
ENDBRANCH  52  53
ENDBRANCH  51  52
ENDBRANCH   1  51
TORSDOF 17
ENDMDL
MODEL 4
REMARK VINA RESULT:    -6.522      4.478      8.399
REMARK INTER + INTRA:         -22.774
REMARK INTER:                 -18.925
REMARK INTRA:                  -3.850
REMARK UNBOUND:                -3.478
REMARK SMILES [H]/N=C(\N)NCCCC[C@@H]1NC(=O)CCCCCCC(=O)NCCCCC[C@@H](C(N)=O)NC(=O)[C@@H](CCCCNC(=S)NCCC(=O)O)NC1=O
REMARK SMILES IDX 36 1 35 2 49 3 50 4 51 5 10 7 9 8 8 9 7 10 6 11 5 12 2 13
REMARK SMILES IDX 3 14 1 15 4 16 11 20 12 21 13 23 14 24 15 25 16 26 17 27
REMARK SMILES IDX 18 28 33 30 34 31 32 32 28 34 27 35 26 36 25 37 24 38 23 39
REMARK SMILES IDX 22 40 20 41 21 43 19 44 29 46 30 47 31 48 37 51 38 52 39 53
REMARK SMILES IDX 40 54 41 56 42 57 43 58 44 60 45 61 46 62 47 63 48 64
REMARK H PARENT 49 6 4 17 4 18 5 19 11 22 32 33 22 42 30 49 30 50 40 55 43 59
REMARK H PARENT 48 65
REMARK Flexibility Score: 80.00
ROOT
ATOM      1  C   UNL     1      29.487  36.513  60.109  1.00  0.00     0.035 C 
ENDROOT
BRANCH   1   2
ATOM      2  C   UNL     1      28.107  35.958  59.691  1.00  0.00     0.171 C 
BRANCH   2   3
ATOM      3  N   UNL     1      27.712  34.638  60.294  1.00  0.00    -0.343 N 
ATOM      4  C   UNL     1      27.626  33.477  59.588  1.00  0.00     0.243 C 
ATOM      5  O   UNL     1      27.285  33.572  58.407  1.00  0.00    -0.273 OA
ATOM      6  H   UNL     1      26.859  34.788  60.824  1.00  0.00     0.164 HD
BRANCH   4   7
ATOM      7  C   UNL     1      27.507  32.029  60.210  1.00  0.00     0.171 C 
BRANCH   7   8
ATOM      8  C   UNL     1      26.532  32.265  61.481  1.00  0.00     0.035 C 
BRANCH   8   9
ATOM      9  C   UNL     1      24.998  31.814  61.527  1.00  0.00     0.004 C 
BRANCH   9  10
ATOM     10  C   UNL     1      24.412  31.475  60.118  1.00  0.00     0.021 C 
BRANCH  10  11
ATOM     11  C   UNL     1      24.408  29.981  59.695  1.00  0.00     0.116 C 
BRANCH  11  12
ATOM     12  N   UNL     1      24.248  29.097  60.860  1.00  0.00    -0.357 N 
ATOM     13  N   UNL     1      23.532  27.089  61.679  1.00  0.00    -0.270 NA
ATOM     14  C   UNL     1      24.347  27.745  60.895  1.00  0.00     0.185 C 
ATOM     15  H   UNL     1      23.733  26.075  61.563  1.00  0.00     0.191 HD
ATOM     16  N   UNL     1      25.324  27.188  60.150  1.00  0.00    -0.370 N 
ATOM     17  H   UNL     1      25.550  26.230  60.451  1.00  0.00     0.159 HD
ATOM     18  H   UNL     1      26.175  27.750  60.190  1.00  0.00     0.159 HD
ATOM     19  H   UNL     1      23.466  29.387  61.445  1.00  0.00     0.163 HD
ENDBRANCH  11  12
ENDBRANCH  10  11
ENDBRANCH   9  10
ENDBRANCH   8   9
ENDBRANCH   7   8
BRANCH   7  20
ATOM     20  N   UNL     1      28.602  30.900  60.524  1.00  0.00    -0.344 N 
ATOM     21  C   UNL     1      28.449  29.571  60.969  1.00  0.00     0.220 C 
ATOM     22  H   UNL     1      29.268  31.303  61.170  1.00  0.00     0.164 HD
ATOM     23  O   UNL     1      27.321  29.124  61.190  1.00  0.00    -0.275 OA
BRANCH  21  24
ATOM     24  C   UNL     1      29.735  28.532  61.097  1.00  0.00     0.100 C 
BRANCH  24  25
ATOM     25  C   UNL     1      29.968  27.070  60.561  1.00  0.00     0.010 C 
BRANCH  25  26
ATOM     26  C   UNL     1      31.056  26.917  59.497  1.00  0.00     0.001 C 
BRANCH  26  27
ATOM     27  C   UNL     1      31.354  25.455  59.055  1.00  0.00     0.001 C 
BRANCH  27  28
ATOM     28  C   UNL     1      31.099  24.676  60.316  1.00  0.00     0.010 CG0
ATOM     29  G   UNL     1      30.000  23.723  60.654  1.00  0.00     0.000 G0
ENDBRANCH  27  28
ENDBRANCH  26  27
ENDBRANCH  25  26
ENDBRANCH  24  25
ENDBRANCH  21  24
ENDBRANCH   7  20
ENDBRANCH   4   7
ENDBRANCH   2   3
BRANCH   2  30
ATOM     30  C   UNL     1      26.922  36.893  60.133  1.00  0.00     0.243 C 
ATOM     31  O   UNL     1      27.068  38.114  60.197  1.00  0.00    -0.273 OA
ATOM     32  N   UNL     1      25.668  36.316  60.129  1.00  0.00    -0.343 N 
ATOM     33  H   UNL     1      25.551  35.318  60.264  1.00  0.00     0.164 HD
BRANCH  32  34
ATOM     34  C   UNL     1      24.469  37.023  59.669  1.00  0.00     0.171 C 
BRANCH  34  35
ATOM     35  C   UNL     1      23.605  36.114  58.751  1.00  0.00     0.035 C 
BRANCH  35  36
ATOM     36  C   UNL     1      24.193  36.017  57.338  1.00  0.00     0.003 C 
BRANCH  36  37
ATOM     37  C   UNL     1      24.590  37.318  56.657  1.00  0.00     0.002 C 
BRANCH  37  38
ATOM     38  C   UNL     1      24.289  37.281  55.126  1.00  0.00     0.021 C 
BRANCH  38  39
ATOM     39  C   UNL     1      24.652  38.618  54.476  1.00  0.00     0.116 C 
BRANCH  39  40
ATOM     40  N   UNL     1      25.230  39.695  55.297  1.00  0.00    -0.356 N 
ATOM     41  C   UNL     1      25.037  41.063  55.311  1.00  0.00     0.219 C 
ATOM     42  H   UNL     1      26.022  39.454  55.878  1.00  0.00     0.163 HD
ATOM     43  O   UNL     1      25.809  41.724  56.019  1.00  0.00    -0.275 OA
BRANCH  41  44
ATOM     44  C   UNL     1      23.919  41.823  54.533  1.00  0.00     0.100 CG0
ATOM     45  G   UNL     1      22.934  42.437  55.472  1.00  0.00     0.000 G0
ENDBRANCH  41  44
ENDBRANCH  39  40
ENDBRANCH  38  39
ENDBRANCH  37  38
ENDBRANCH  36  37
ENDBRANCH  35  36
ENDBRANCH  34  35
BRANCH  34  46
ATOM     46  C   UNL     1      23.660  37.443  60.896  1.00  0.00     0.240 C 
ATOM     47  N   UNL     1      23.836  36.690  62.025  1.00  0.00    -0.368 N 
ATOM     48  O   UNL     1      22.916  38.428  60.928  1.00  0.00    -0.273 OA
ATOM     49  H   UNL     1      24.322  35.811  62.028  1.00  0.00     0.159 HD
ATOM     50  H   UNL     1      23.276  36.937  62.829  1.00  0.00     0.159 HD
ENDBRANCH  34  46
ENDBRANCH  32  34
ENDBRANCH   2  30
ENDBRANCH   1   2
BRANCH   1  51
ATOM     51  C   UNL     1      30.698  35.561  60.166  1.00  0.00     0.004 C 
BRANCH  51  52
ATOM     52  C   UNL     1      31.388  35.229  58.834  1.00  0.00     0.021 C 
BRANCH  52  53
ATOM     53  C   UNL     1      30.994  33.820  58.407  1.00  0.00     0.115 C 
BRANCH  53  54
ATOM     54  N   UNL     1      30.038  33.756  57.315  1.00  0.00    -0.363 N 
ATOM     55  H   UNL     1      29.236  34.367  57.386  1.00  0.00     0.162 HD
BRANCH  54  56
ATOM     56  C   UNL     1      30.125  32.938  56.207  1.00  0.00     0.166 C 
ATOM     57  S   UNL     1      31.523  32.588  55.368  1.00  0.00    -0.041 S 
BRANCH  56  58
ATOM     58  N   UNL     1      28.865  32.532  55.815  1.00  0.00    -0.362 N 
ATOM     59  H   UNL     1      28.701  31.534  55.857  1.00  0.00     0.162 HD
BRANCH  58  60
ATOM     60  C   UNL     1      27.868  33.315  55.082  1.00  0.00     0.127 C 
BRANCH  60  61
ATOM     61  C   UNL     1      27.587  32.725  53.711  1.00  0.00     0.143 C 
BRANCH  61  62
ATOM     62  C   UNL     1      27.657  33.673  52.537  1.00  0.00     0.305 C 
ATOM     63  O   UNL     1      28.635  33.709  51.800  1.00  0.00    -0.252 OA
BRANCH  62  64
ATOM     64  O   UNL     1      26.581  34.445  52.305  1.00  0.00    -0.481 OA
ATOM     65  H   UNL     1      26.755  35.313  51.885  1.00  0.00     0.296 HD
ENDBRANCH  62  64
ENDBRANCH  61  62
ENDBRANCH  60  61
ENDBRANCH  58  60
ENDBRANCH  56  58
ENDBRANCH  54  56
ENDBRANCH  53  54
ENDBRANCH  52  53
ENDBRANCH  51  52
ENDBRANCH   1  51
TORSDOF 17
ENDMDL
MODEL 5
REMARK VINA RESULT:    -6.499      7.777     12.897
REMARK INTER + INTRA:         -22.704
REMARK INTER:                 -19.001
REMARK INTRA:                  -3.703
REMARK UNBOUND:                -3.478
REMARK SMILES [H]/N=C(\N)NCCCC[C@@H]1NC(=O)CCCCCCC(=O)NCCCCC[C@@H](C(N)=O)NC(=O)[C@@H](CCCCNC(=S)NCCC(=O)O)NC1=O
REMARK SMILES IDX 36 1 35 2 49 3 50 4 51 5 10 7 9 8 8 9 7 10 6 11 5 12 2 13
REMARK SMILES IDX 3 14 1 15 4 16 11 20 12 21 13 23 14 24 15 25 16 26 17 27
REMARK SMILES IDX 18 28 33 30 34 31 32 32 28 34 27 35 26 36 25 37 24 38 23 39
REMARK SMILES IDX 22 40 20 41 21 43 19 44 29 46 30 47 31 48 37 51 38 52 39 53
REMARK SMILES IDX 40 54 41 56 42 57 43 58 44 60 45 61 46 62 47 63 48 64
REMARK H PARENT 49 6 4 17 4 18 5 19 11 22 32 33 22 42 30 49 30 50 40 55 43 59
REMARK H PARENT 48 65
REMARK Flexibility Score: 80.00
ROOT
ATOM      1  C   UNL     1      26.392  40.552  54.465  1.00  0.00     0.035 C 
ENDROOT
BRANCH   1   2
ATOM      2  C   UNL     1      26.566  41.313  55.798  1.00  0.00     0.171 C 
BRANCH   2   3
ATOM      3  N   UNL     1      27.970  41.716  56.155  1.00  0.00    -0.343 N 
ATOM      4  C   UNL     1      28.466  41.701  57.422  1.00  0.00     0.243 C 
ATOM      5  O   UNL     1      27.667  41.940  58.331  1.00  0.00    -0.273 OA
ATOM      6  H   UNL     1      28.148  42.616  55.721  1.00  0.00     0.164 HD
BRANCH   4   7
ATOM      7  C   UNL     1      29.992  41.827  57.815  1.00  0.00     0.171 C 
BRANCH   7   8
ATOM      8  C   UNL     1      30.660  42.421  56.466  1.00  0.00     0.035 C 
BRANCH   8   9
ATOM      9  C   UNL     1      32.057  43.198  56.427  1.00  0.00     0.004 C 
BRANCH   9  10
ATOM     10  C   UNL     1      32.249  44.182  57.626  1.00  0.00     0.021 C 
BRANCH  10  11
ATOM     11  C   UNL     1      31.661  45.610  57.471  1.00  0.00     0.116 C 
BRANCH  11  12
ATOM     12  N   UNL     1      30.381  45.740  58.184  1.00  0.00    -0.357 N 
ATOM     13  N   UNL     1      28.753  44.738  59.434  1.00  0.00    -0.270 NA
ATOM     14  C   UNL     1      30.000  45.116  59.326  1.00  0.00     0.185 C 
ATOM     15  H   UNL     1      28.648  44.263  60.353  1.00  0.00     0.191 HD
ATOM     16  N   UNL     1      30.938  44.982  60.287  1.00  0.00    -0.370 N 
ATOM     17  H   UNL     1      30.528  44.798  61.213  1.00  0.00     0.159 HD
ATOM     18  H   UNL     1      31.515  45.821  60.348  1.00  0.00     0.159 HD
ATOM     19  H   UNL     1      29.592  45.758  57.539  1.00  0.00     0.163 HD
ENDBRANCH  11  12
ENDBRANCH  10  11
ENDBRANCH   9  10
ENDBRANCH   8   9
ENDBRANCH   7   8
BRANCH   7  20
ATOM     20  N   UNL     1      30.995  40.825  58.565  1.00  0.00    -0.344 N 
ATOM     21  C   UNL     1      31.612  40.920  59.829  1.00  0.00     0.220 C 
ATOM     22  H   UNL     1      31.759  40.637  57.929  1.00  0.00     0.164 HD
ATOM     23  O   UNL     1      31.412  41.910  60.537  1.00  0.00    -0.275 OA
BRANCH  21  24
ATOM     24  C   UNL     1      32.517  39.683  60.461  1.00  0.00     0.100 C 
BRANCH  24  25
ATOM     25  C   UNL     1      33.567  38.705  59.813  1.00  0.00     0.010 C 
BRANCH  25  26
ATOM     26  C   UNL     1      33.021  37.354  59.348  1.00  0.00     0.001 C 
BRANCH  26  27
ATOM     27  C   UNL     1      34.007  36.157  59.477  1.00  0.00     0.001 C 
BRANCH  27  28
ATOM     28  C   UNL     1      35.076  36.713  60.377  1.00  0.00     0.010 CG0
ATOM     29  G   UNL     1      35.624  36.185  61.662  1.00  0.00     0.000 G0
ENDBRANCH  27  28
ENDBRANCH  26  27
ENDBRANCH  25  26
ENDBRANCH  24  25
ENDBRANCH  21  24
ENDBRANCH   7  20
ENDBRANCH   4   7
ENDBRANCH   2   3
BRANCH   2  30
ATOM     30  C   UNL     1      25.811  42.693  55.809  1.00  0.00     0.243 C 
ATOM     31  O   UNL     1      25.188  43.066  56.802  1.00  0.00    -0.273 OA
ATOM     32  N   UNL     1      26.147  43.569  54.797  1.00  0.00    -0.343 N 
ATOM     33  H   UNL     1      26.490  43.230  53.904  1.00  0.00     0.164 HD
BRANCH  32  34
ATOM     34  C   UNL     1      26.298  45.012  55.011  1.00  0.00     0.171 C 
BRANCH  34  35
ATOM     35  C   UNL     1      24.929  45.673  55.332  1.00  0.00     0.035 C 
BRANCH  35  36
ATOM     36  C   UNL     1      23.869  45.313  54.284  1.00  0.00     0.003 C 
BRANCH  36  37
ATOM     37  C   UNL     1      23.982  45.977  52.920  1.00  0.00     0.002 C 
BRANCH  37  38
ATOM     38  C   UNL     1      22.780  45.603  51.997  1.00  0.00     0.021 C 
BRANCH  38  39
ATOM     39  C   UNL     1      21.576  46.500  52.295  1.00  0.00     0.116 C 
BRANCH  39  40
ATOM     40  N   UNL     1      20.244  46.121  51.796  1.00  0.00    -0.356 N 
ATOM     41  C   UNL     1      19.250  46.836  51.155  1.00  0.00     0.219 C 
ATOM     42  H   UNL     1      19.889  45.216  52.077  1.00  0.00     0.163 HD
ATOM     43  O   UNL     1      18.160  46.264  51.012  1.00  0.00    -0.275 OA
BRANCH  41  44
ATOM     44  C   UNL     1      19.406  48.277  50.580  1.00  0.00     0.100 CG0
ATOM     45  G   UNL     1      19.819  49.239  51.645  1.00  0.00     0.000 G0
ENDBRANCH  41  44
ENDBRANCH  39  40
ENDBRANCH  38  39
ENDBRANCH  37  38
ENDBRANCH  36  37
ENDBRANCH  35  36
ENDBRANCH  34  35
BRANCH  34  46
ATOM     46  C   UNL     1      27.265  45.224  56.176  1.00  0.00     0.240 C 
ATOM     47  N   UNL     1      26.755  45.852  57.280  1.00  0.00    -0.368 N 
ATOM     48  O   UNL     1      28.432  44.824  56.185  1.00  0.00    -0.273 OA
ATOM     49  H   UNL     1      25.861  46.311  57.287  1.00  0.00     0.159 HD
ATOM     50  H   UNL     1      27.397  46.031  58.039  1.00  0.00     0.159 HD
ENDBRANCH  34  46
ENDBRANCH  32  34
ENDBRANCH   2  30
ENDBRANCH   1   2
BRANCH   1  51
ATOM     51  C   UNL     1      24.981  40.117  54.023  1.00  0.00     0.004 C 
BRANCH  51  52
ATOM     52  C   UNL     1      24.685  38.609  54.018  1.00  0.00     0.021 C 
BRANCH  52  53
ATOM     53  C   UNL     1      24.543  38.125  55.456  1.00  0.00     0.115 C 
BRANCH  53  54
ATOM     54  N   UNL     1      24.287  36.702  55.600  1.00  0.00    -0.363 N 
ATOM     55  H   UNL     1      23.808  36.254  54.831  1.00  0.00     0.162 HD
BRANCH  54  56
ATOM     56  C   UNL     1      24.628  35.923  56.686  1.00  0.00     0.166 C 
ATOM     57  S   UNL     1      25.636  34.595  56.648  1.00  0.00    -0.041 S 
BRANCH  56  58
ATOM     58  N   UNL     1      23.924  36.327  57.802  1.00  0.00    -0.362 N 
ATOM     59  H   UNL     1      23.802  37.328  57.896  1.00  0.00     0.162 HD
BRANCH  58  60
ATOM     60  C   UNL     1      23.602  35.529  58.988  1.00  0.00     0.127 C 
BRANCH  60  61
ATOM     61  C   UNL     1      24.582  35.782  60.120  1.00  0.00     0.143 C 
BRANCH  61  62
ATOM     62  C   UNL     1      24.891  37.226  60.440  1.00  0.00     0.305 C 
ATOM     63  O   UNL     1      24.308  37.822  61.338  1.00  0.00    -0.252 OA
BRANCH  62  64
ATOM     64  O   UNL     1      25.867  37.817  59.729  1.00  0.00    -0.481 OA
ATOM     65  H   UNL     1      25.956  38.786  59.843  1.00  0.00     0.296 HD
ENDBRANCH  62  64
ENDBRANCH  61  62
ENDBRANCH  60  61
ENDBRANCH  58  60
ENDBRANCH  56  58
ENDBRANCH  54  56
ENDBRANCH  53  54
ENDBRANCH  52  53
ENDBRANCH  51  52
ENDBRANCH   1  51
TORSDOF 17
ENDMDL
MODEL 6
REMARK VINA RESULT:    -6.484      3.237      4.128
REMARK INTER + INTRA:         -22.662
REMARK INTER:                 -19.463
REMARK INTRA:                  -3.199
REMARK UNBOUND:                -3.478
REMARK SMILES [H]/N=C(\N)NCCCC[C@@H]1NC(=O)CCCCCCC(=O)NCCCCC[C@@H](C(N)=O)NC(=O)[C@@H](CCCCNC(=S)NCCC(=O)O)NC1=O
REMARK SMILES IDX 36 1 35 2 49 3 50 4 51 5 10 7 9 8 8 9 7 10 6 11 5 12 2 13
REMARK SMILES IDX 3 14 1 15 4 16 11 20 12 21 13 23 14 24 15 25 16 26 17 27
REMARK SMILES IDX 18 28 33 30 34 31 32 32 28 34 27 35 26 36 25 37 24 38 23 39
REMARK SMILES IDX 22 40 20 41 21 43 19 44 29 46 30 47 31 48 37 51 38 52 39 53
REMARK SMILES IDX 40 54 41 56 42 57 43 58 44 60 45 61 46 62 47 63 48 64
REMARK H PARENT 49 6 4 17 4 18 5 19 11 22 32 33 22 42 30 49 30 50 40 55 43 59
REMARK H PARENT 48 65
REMARK Flexibility Score: 80.00
ROOT
ATOM      1  C   UNL     1      28.031  34.078  57.245  1.00  0.00     0.035 C 
ENDROOT
BRANCH   1   2
ATOM      2  C   UNL     1      27.681  32.659  56.743  1.00  0.00     0.171 C 
BRANCH   2   3
ATOM      3  N   UNL     1      26.472  32.014  57.364  1.00  0.00    -0.343 N 
ATOM      4  C   UNL     1      26.407  31.616  58.664  1.00  0.00     0.243 C 
ATOM      5  O   UNL     1      27.460  31.225  59.175  1.00  0.00    -0.273 OA
ATOM      6  H   UNL     1      26.184  31.257  56.752  1.00  0.00     0.164 HD
BRANCH   4   7
ATOM      7  C   UNL     1      25.090  31.210  59.437  1.00  0.00     0.171 C 
BRANCH   7   8
ATOM      8  C   UNL     1      24.734  32.555  60.264  1.00  0.00     0.035 C 
BRANCH   8   9
ATOM      9  C   UNL     1      25.612  33.119  61.476  1.00  0.00     0.004 C 
BRANCH   9  10
ATOM     10  C   UNL     1      26.218  34.532  61.194  1.00  0.00     0.021 C 
BRANCH  10  11
ATOM     11  C   UNL     1      25.430  35.460  60.232  1.00  0.00     0.116 C 
BRANCH  11  12
ATOM     12  N   UNL     1      24.557  36.381  60.977  1.00  0.00    -0.357 N 
ATOM     13  N   UNL     1      23.167  38.193  60.927  1.00  0.00    -0.270 NA
ATOM     14  C   UNL     1      23.410  36.964  60.549  1.00  0.00     0.185 C 
ATOM     15  H   UNL     1      22.267  38.482  60.493  1.00  0.00     0.191 HD
ATOM     16  N   UNL     1      22.580  36.203  59.806  1.00  0.00    -0.370 N 
ATOM     17  H   UNL     1      21.622  36.575  59.781  1.00  0.00     0.159 HD
ATOM     18  H   UNL     1      22.549  35.247  60.163  1.00  0.00     0.159 HD
ATOM     19  H   UNL     1      25.097  37.064  61.507  1.00  0.00     0.163 HD
ENDBRANCH  11  12
ENDBRANCH  10  11
ENDBRANCH   9  10
ENDBRANCH   8   9
ENDBRANCH   7   8
BRANCH   7  20
ATOM     20  N   UNL     1      24.693  29.898  60.268  1.00  0.00    -0.344 N 
ATOM     21  C   UNL     1      24.334  28.606  59.828  1.00  0.00     0.220 C 
ATOM     22  H   UNL     1      23.948  30.159  60.901  1.00  0.00     0.164 HD
ATOM     23  O   UNL     1      24.281  28.362  58.621  1.00  0.00    -0.275 OA
BRANCH  21  24
ATOM     24  C   UNL     1      24.092  27.353  60.886  1.00  0.00     0.100 C 
BRANCH  24  25
ATOM     25  C   UNL     1      24.907  26.035  61.165  1.00  0.00     0.010 C 
BRANCH  25  26
ATOM     26  C   UNL     1      25.953  26.122  62.278  1.00  0.00     0.001 C 
BRANCH  26  27
ATOM     27  C   UNL     1      26.235  27.554  62.817  1.00  0.00     0.001 C 
BRANCH  27  28
ATOM     28  C   UNL     1      26.288  27.336  64.304  1.00  0.00     0.010 CG0
ATOM     29  G   UNL     1      25.200  26.981  65.264  1.00  0.00     0.000 G0
ENDBRANCH  27  28
ENDBRANCH  26  27
ENDBRANCH  25  26
ENDBRANCH  24  25
ENDBRANCH  21  24
ENDBRANCH   7  20
ENDBRANCH   4   7
ENDBRANCH   2   3
BRANCH   2  30
ATOM     30  C   UNL     1      27.324  32.632  55.211  1.00  0.00     0.243 C 
ATOM     31  O   UNL     1      26.454  33.371  54.752  1.00  0.00    -0.273 OA
ATOM     32  N   UNL     1      28.233  31.992  54.394  1.00  0.00    -0.343 N 
ATOM     33  H   UNL     1      28.823  31.247  54.750  1.00  0.00     0.164 HD
BRANCH  32  34
ATOM     34  C   UNL     1      28.608  32.500  53.070  1.00  0.00     0.171 C 
BRANCH  34  35
ATOM     35  C   UNL     1      29.618  33.674  53.191  1.00  0.00     0.035 C 
BRANCH  35  36
ATOM     36  C   UNL     1      30.954  33.210  53.786  1.00  0.00     0.003 C 
BRANCH  36  37
ATOM     37  C   UNL     1      32.225  33.683  53.099  1.00  0.00     0.002 C 
BRANCH  37  38
ATOM     38  C   UNL     1      31.911  34.505  51.809  1.00  0.00     0.021 C 
BRANCH  38  39
ATOM     39  C   UNL     1      33.186  34.726  50.991  1.00  0.00     0.116 C 
BRANCH  39  40
ATOM     40  N   UNL     1      33.476  33.853  49.842  1.00  0.00    -0.356 N 
ATOM     41  C   UNL     1      33.156  33.939  48.501  1.00  0.00     0.219 C 
ATOM     42  H   UNL     1      33.858  32.938  50.046  1.00  0.00     0.163 HD
ATOM     43  O   UNL     1      33.407  32.944  47.807  1.00  0.00    -0.275 OA
BRANCH  41  44
ATOM     44  C   UNL     1      32.537  35.188  47.801  1.00  0.00     0.100 CG0
ATOM     45  G   UNL     1      33.581  35.968  47.072  1.00  0.00     0.000 G0
ENDBRANCH  41  44
ENDBRANCH  39  40
ENDBRANCH  38  39
ENDBRANCH  37  38
ENDBRANCH  36  37
ENDBRANCH  35  36
ENDBRANCH  34  35
BRANCH  34  46
ATOM     46  C   UNL     1      29.234  31.353  52.277  1.00  0.00     0.240 C 
ATOM     47  N   UNL     1      28.955  30.088  52.718  1.00  0.00    -0.368 N 
ATOM     48  O   UNL     1      29.917  31.509  51.261  1.00  0.00    -0.273 OA
ATOM     49  H   UNL     1      28.518  29.899  53.603  1.00  0.00     0.159 HD
ATOM     50  H   UNL     1      29.396  29.325  52.224  1.00  0.00     0.159 HD
ENDBRANCH  34  46
ENDBRANCH  32  34
ENDBRANCH   2  30
ENDBRANCH   1   2
BRANCH   1  51
ATOM     51  C   UNL     1      28.887  34.239  58.516  1.00  0.00     0.004 C 
BRANCH  51  52
ATOM     52  C   UNL     1      30.211  33.463  58.570  1.00  0.00     0.021 C 
BRANCH  52  53
ATOM     53  C   UNL     1      31.364  34.453  58.686  1.00  0.00     0.115 C 
BRANCH  53  54
ATOM     54  N   UNL     1      32.662  33.929  58.296  1.00  0.00    -0.363 N 
ATOM     55  H   UNL     1      33.420  34.597  58.258  1.00  0.00     0.162 HD
BRANCH  54  56
ATOM     56  C   UNL     1      32.943  32.619  57.967  1.00  0.00     0.166 C 
ATOM     57  S   UNL     1      33.338  31.412  59.048  1.00  0.00    -0.041 S 
BRANCH  56  58
ATOM     58  N   UNL     1      32.964  32.467  56.596  1.00  0.00    -0.362 N 
ATOM     59  H   UNL     1      32.112  32.734  56.119  1.00  0.00     0.162 HD
BRANCH  58  60
ATOM     60  C   UNL     1      33.931  31.706  55.801  1.00  0.00     0.127 C 
BRANCH  60  61
ATOM     61  C   UNL     1      35.259  32.433  55.684  1.00  0.00     0.143 C 
BRANCH  61  62
ATOM     62  C   UNL     1      35.676  32.864  54.297  1.00  0.00     0.305 C 
ATOM     63  O   UNL     1      35.450  32.168  53.314  1.00  0.00    -0.252 OA
BRANCH  62  64
ATOM     64  O   UNL     1      36.266  34.066  54.179  1.00  0.00    -0.481 OA
ATOM     65  H   UNL     1      37.242  34.078  54.266  1.00  0.00     0.296 HD
ENDBRANCH  62  64
ENDBRANCH  61  62
ENDBRANCH  60  61
ENDBRANCH  58  60
ENDBRANCH  56  58
ENDBRANCH  54  56
ENDBRANCH  53  54
ENDBRANCH  52  53
ENDBRANCH  51  52
ENDBRANCH   1  51
TORSDOF 17
ENDMDL
MODEL 7
REMARK VINA RESULT:    -6.467      4.139      6.691
REMARK INTER + INTRA:         -22.611
REMARK INTER:                 -19.034
REMARK INTRA:                  -3.577
REMARK UNBOUND:                -3.478
REMARK SMILES [H]/N=C(\N)NCCCC[C@@H]1NC(=O)CCCCCCC(=O)NCCCCC[C@@H](C(N)=O)NC(=O)[C@@H](CCCCNC(=S)NCCC(=O)O)NC1=O
REMARK SMILES IDX 36 1 35 2 49 3 50 4 51 5 10 7 9 8 8 9 7 10 6 11 5 12 2 13
REMARK SMILES IDX 3 14 1 15 4 16 11 20 12 21 13 23 14 24 15 25 16 26 17 27
REMARK SMILES IDX 18 28 33 30 34 31 32 32 28 34 27 35 26 36 25 37 24 38 23 39
REMARK SMILES IDX 22 40 20 41 21 43 19 44 29 46 30 47 31 48 37 51 38 52 39 53
REMARK SMILES IDX 40 54 41 56 42 57 43 58 44 60 45 61 46 62 47 63 48 64
REMARK H PARENT 49 6 4 17 4 18 5 19 11 22 32 33 22 42 30 49 30 50 40 55 43 59
REMARK H PARENT 48 65
REMARK Flexibility Score: 80.00
ROOT
ATOM      1  C   UNL     1      28.600  34.473  59.320  1.00  0.00     0.035 C 
ENDROOT
BRANCH   1   2
ATOM      2  C   UNL     1      29.558  33.822  58.297  1.00  0.00     0.171 C 
BRANCH   2   3
ATOM      3  N   UNL     1      30.221  32.543  58.729  1.00  0.00    -0.343 N 
ATOM      4  C   UNL     1      31.243  32.483  59.626  1.00  0.00     0.243 C 
ATOM      5  O   UNL     1      32.019  33.442  59.643  1.00  0.00    -0.273 OA
ATOM      6  H   UNL     1      30.464  32.027  57.889  1.00  0.00     0.164 HD
BRANCH   4   7
ATOM      7  C   UNL     1      31.774  31.172  60.330  1.00  0.00     0.171 C 
BRANCH   7   8
ATOM      8  C   UNL     1      30.658  30.072  59.924  1.00  0.00     0.035 C 
BRANCH   8   9
ATOM      9  C   UNL     1      29.633  29.414  60.960  1.00  0.00     0.004 C 
BRANCH   9  10
ATOM     10  C   UNL     1      28.215  30.070  60.925  1.00  0.00     0.021 C 
BRANCH  10  11
ATOM     11  C   UNL     1      26.992  29.115  60.971  1.00  0.00     0.116 C 
BRANCH  11  12
ATOM     12  N   UNL     1      25.826  29.708  60.296  1.00  0.00    -0.357 N 
ATOM     13  N   UNL     1      23.601  29.571  59.804  1.00  0.00    -0.270 NA
ATOM     14  C   UNL     1      24.535  29.698  60.710  1.00  0.00     0.185 C 
ATOM     15  H   UNL     1      22.685  29.561  60.297  1.00  0.00     0.191 HD
ATOM     16  N   UNL     1      24.318  29.875  62.030  1.00  0.00    -0.370 N 
ATOM     17  H   UNL     1      23.353  30.167  62.233  1.00  0.00     0.159 HD
ATOM     18  H   UNL     1      24.956  30.574  62.410  1.00  0.00     0.159 HD
ATOM     19  H   UNL     1      25.853  29.546  59.290  1.00  0.00     0.163 HD
ENDBRANCH  11  12
ENDBRANCH  10  11
ENDBRANCH   9  10
ENDBRANCH   8   9
ENDBRANCH   7   8
BRANCH   7  20
ATOM     20  N   UNL     1      32.346  30.899  61.803  1.00  0.00    -0.344 N 
ATOM     21  C   UNL     1      33.464  31.443  62.469  1.00  0.00     0.220 C 
ATOM     22  H   UNL     1      32.464  29.899  61.897  1.00  0.00     0.164 HD
ATOM     23  O   UNL     1      34.184  32.262  61.892  1.00  0.00    -0.275 OA
BRANCH  21  24
ATOM     24  C   UNL     1      33.788  31.109  64.060  1.00  0.00     0.100 C 
BRANCH  24  25
ATOM     25  C   UNL     1      32.861  30.678  65.258  1.00  0.00     0.010 C 
BRANCH  25  26
ATOM     26  C   UNL     1      32.305  31.818  66.113  1.00  0.00     0.001 C 
BRANCH  26  27
ATOM     27  C   UNL     1      32.600  31.713  67.636  1.00  0.00     0.001 C 
BRANCH  27  28
ATOM     28  C   UNL     1      33.733  32.688  67.815  1.00  0.00     0.010 CG0
ATOM     29  G   UNL     1      33.787  34.159  67.563  1.00  0.00     0.000 G0
ENDBRANCH  27  28
ENDBRANCH  26  27
ENDBRANCH  25  26
ENDBRANCH  24  25
ENDBRANCH  21  24
ENDBRANCH   7  20
ENDBRANCH   4   7
ENDBRANCH   2   3
BRANCH   2  30
ATOM     30  C   UNL     1      28.823  33.386  56.976  1.00  0.00     0.243 C 
ATOM     31  O   UNL     1      27.758  33.905  56.643  1.00  0.00    -0.273 OA
ATOM     32  N   UNL     1      29.578  32.652  56.084  1.00  0.00    -0.343 N 
ATOM     33  H   UNL     1      30.350  32.076  56.401  1.00  0.00     0.164 HD
BRANCH  32  34
ATOM     34  C   UNL     1      29.511  32.852  54.632  1.00  0.00     0.171 C 
BRANCH  34  35
ATOM     35  C   UNL     1      30.933  32.858  54.006  1.00  0.00     0.035 C 
BRANCH  35  36
ATOM     36  C   UNL     1      30.979  33.693  52.720  1.00  0.00     0.003 C 
BRANCH  36  37
ATOM     37  C   UNL     1      32.349  33.988  52.129  1.00  0.00     0.002 C 
BRANCH  37  38
ATOM     38  C   UNL     1      32.326  35.268  51.235  1.00  0.00     0.021 C 
BRANCH  38  39
ATOM     39  C   UNL     1      31.375  35.076  50.051  1.00  0.00     0.116 C 
BRANCH  39  40
ATOM     40  N   UNL     1      31.800  34.265  48.898  1.00  0.00    -0.356 N 
ATOM     41  C   UNL     1      32.539  34.563  47.770  1.00  0.00     0.219 C 
ATOM     42  H   UNL     1      31.379  33.350  48.801  1.00  0.00     0.163 HD
ATOM     43  O   UNL     1      32.583  33.691  46.890  1.00  0.00    -0.275 OA
BRANCH  41  44
ATOM     44  C   UNL     1      33.334  35.885  47.537  1.00  0.00     0.100 CG0
ATOM     45  G   UNL     1      33.263  36.308  46.106  1.00  0.00     0.000 G0
ENDBRANCH  41  44
ENDBRANCH  39  40
ENDBRANCH  38  39
ENDBRANCH  37  38
ENDBRANCH  36  37
ENDBRANCH  35  36
ENDBRANCH  34  35
BRANCH  34  46
ATOM     46  C   UNL     1      28.681  31.718  54.031  1.00  0.00     0.240 C 
ATOM     47  N   UNL     1      27.324  31.816  54.177  1.00  0.00    -0.368 N 
ATOM     48  O   UNL     1      29.161  30.773  53.397  1.00  0.00    -0.273 OA
ATOM     49  H   UNL     1      26.884  32.484  54.785  1.00  0.00     0.159 HD
ATOM     50  H   UNL     1      26.770  31.051  53.816  1.00  0.00     0.159 HD
ENDBRANCH  34  46
ENDBRANCH  32  34
ENDBRANCH   2  30
ENDBRANCH   1   2
BRANCH   1  51
ATOM     51  C   UNL     1      27.688  33.575  60.178  1.00  0.00     0.004 C 
BRANCH  51  52
ATOM     52  C   UNL     1      26.180  33.636  59.892  1.00  0.00     0.021 C 
BRANCH  52  53
ATOM     53  C   UNL     1      25.419  33.532  61.208  1.00  0.00     0.115 C 
BRANCH  53  54
ATOM     54  N   UNL     1      25.408  34.747  62.006  1.00  0.00    -0.363 N 
ATOM     55  H   UNL     1      25.517  34.628  63.004  1.00  0.00     0.162 HD
BRANCH  54  56
ATOM     56  C   UNL     1      25.253  36.031  61.526  1.00  0.00     0.166 C 
ATOM     57  S   UNL     1      26.481  37.136  61.301  1.00  0.00    -0.041 S 
BRANCH  56  58
ATOM     58  N   UNL     1      23.913  36.320  61.363  1.00  0.00    -0.362 N 
ATOM     59  H   UNL     1      23.298  35.926  62.064  1.00  0.00     0.162 HD
BRANCH  58  60
ATOM     60  C   UNL     1      23.259  36.857  60.167  1.00  0.00     0.127 C 
BRANCH  60  61
ATOM     61  C   UNL     1      23.166  35.821  59.062  1.00  0.00     0.143 C 
BRANCH  61  62
ATOM     62  C   UNL     1      24.114  35.983  57.897  1.00  0.00     0.305 C 
ATOM     63  O   UNL     1      25.052  36.770  57.940  1.00  0.00    -0.252 OA
BRANCH  62  64
ATOM     64  O   UNL     1      23.915  35.194  56.828  1.00  0.00    -0.481 OA
ATOM     65  H   UNL     1      23.692  34.259  57.017  1.00  0.00     0.296 HD
ENDBRANCH  62  64
ENDBRANCH  61  62
ENDBRANCH  60  61
ENDBRANCH  58  60
ENDBRANCH  56  58
ENDBRANCH  54  56
ENDBRANCH  53  54
ENDBRANCH  52  53
ENDBRANCH  51  52
ENDBRANCH   1  51
TORSDOF 17
ENDMDL
MODEL 8
REMARK VINA RESULT:    -6.450      3.355      4.974
REMARK INTER + INTRA:         -22.559
REMARK INTER:                 -18.867
REMARK INTRA:                  -3.692
REMARK UNBOUND:                -3.478
REMARK SMILES [H]/N=C(\N)NCCCC[C@@H]1NC(=O)CCCCCCC(=O)NCCCCC[C@@H](C(N)=O)NC(=O)[C@@H](CCCCNC(=S)NCCC(=O)O)NC1=O
REMARK SMILES IDX 36 1 35 2 49 3 50 4 51 5 10 7 9 8 8 9 7 10 6 11 5 12 2 13
REMARK SMILES IDX 3 14 1 15 4 16 11 20 12 21 13 23 14 24 15 25 16 26 17 27
REMARK SMILES IDX 18 28 33 30 34 31 32 32 28 34 27 35 26 36 25 37 24 38 23 39
REMARK SMILES IDX 22 40 20 41 21 43 19 44 29 46 30 47 31 48 37 51 38 52 39 53
REMARK SMILES IDX 40 54 41 56 42 57 43 58 44 60 45 61 46 62 47 63 48 64
REMARK H PARENT 49 6 4 17 4 18 5 19 11 22 32 33 22 42 30 49 30 50 40 55 43 59
REMARK H PARENT 48 65
REMARK Flexibility Score: 80.00
ROOT
ATOM      1  C   UNL     1      29.811  34.037  57.710  1.00  0.00     0.035 C 
ENDROOT
BRANCH   1   2
ATOM      2  C   UNL     1      29.495  32.578  57.313  1.00  0.00     0.171 C 
BRANCH   2   3
ATOM      3  N   UNL     1      28.509  31.850  58.185  1.00  0.00    -0.343 N 
ATOM      4  C   UNL     1      28.774  31.446  59.457  1.00  0.00     0.243 C 
ATOM      5  O   UNL     1      29.940  31.128  59.704  1.00  0.00    -0.273 OA
ATOM      6  H   UNL     1      28.137  31.076  57.643  1.00  0.00     0.164 HD
BRANCH   4   7
ATOM      7  C   UNL     1      27.702  30.950  60.507  1.00  0.00     0.171 C 
BRANCH   7   8
ATOM      8  C   UNL     1      26.961  32.324  60.936  1.00  0.00     0.035 C 
BRANCH   8   9
ATOM      9  C   UNL     1      25.420  32.416  61.354  1.00  0.00     0.004 C 
BRANCH   9  10
ATOM     10  C   UNL     1      24.704  31.026  61.379  1.00  0.00     0.021 C 
BRANCH  10  11
ATOM     11  C   UNL     1      24.135  30.500  60.034  1.00  0.00     0.116 C 
BRANCH  11  12
ATOM     12  N   UNL     1      24.709  29.190  59.688  1.00  0.00    -0.357 N 
ATOM     13  N   UNL     1      25.890  27.357  60.366  1.00  0.00    -0.270 NA
ATOM     14  C   UNL     1      24.818  28.097  60.482  1.00  0.00     0.185 C 
ATOM     15  H   UNL     1      25.815  26.585  61.059  1.00  0.00     0.191 HD
ATOM     16  N   UNL     1      23.776  27.831  61.298  1.00  0.00    -0.370 N 
ATOM     17  H   UNL     1      23.775  26.856  61.628  1.00  0.00     0.159 HD
ATOM     18  H   UNL     1      22.891  28.015  60.824  1.00  0.00     0.159 HD
ATOM     19  H   UNL     1      25.563  29.288  59.141  1.00  0.00     0.163 HD
ENDBRANCH  11  12
ENDBRANCH  10  11
ENDBRANCH   9  10
ENDBRANCH   8   9
ENDBRANCH   7   8
BRANCH   7  20
ATOM     20  N   UNL     1      27.799  29.935  61.745  1.00  0.00    -0.344 N 
ATOM     21  C   UNL     1      28.408  28.666  61.845  1.00  0.00     0.220 C 
ATOM     22  H   UNL     1      26.858  29.785  62.082  1.00  0.00     0.164 HD
ATOM     23  O   UNL     1      28.971  28.177  60.863  1.00  0.00    -0.275 OA
BRANCH  21  24
ATOM     24  C   UNL     1      28.501  27.847  63.283  1.00  0.00     0.100 C 
BRANCH  24  25
ATOM     25  C   UNL     1      29.179  28.204  64.659  1.00  0.00     0.010 C 
BRANCH  25  26
ATOM     26  C   UNL     1      28.224  28.468  65.824  1.00  0.00     0.001 C 
BRANCH  26  27
ATOM     27  C   UNL     1      27.788  27.209  66.627  1.00  0.00     0.001 C 
BRANCH  27  28
ATOM     28  C   UNL     1      26.446  26.890  66.028  1.00  0.00     0.010 CG0
ATOM     29  G   UNL     1      25.285  27.783  65.736  1.00  0.00     0.000 G0
ENDBRANCH  27  28
ENDBRANCH  26  27
ENDBRANCH  25  26
ENDBRANCH  24  25
ENDBRANCH  21  24
ENDBRANCH   7  20
ENDBRANCH   4   7
ENDBRANCH   2   3
BRANCH   2  30
ATOM     30  C   UNL     1      28.827  32.470  55.893  1.00  0.00     0.243 C 
ATOM     31  O   UNL     1      27.681  32.877  55.700  1.00  0.00    -0.273 OA
ATOM     32  N   UNL     1      29.684  32.204  54.844  1.00  0.00    -0.343 N 
ATOM     33  H   UNL     1      30.551  31.698  54.992  1.00  0.00     0.164 HD
BRANCH  32  34
ATOM     34  C   UNL     1      29.558  32.845  53.531  1.00  0.00     0.171 C 
BRANCH  34  35
ATOM     35  C   UNL     1      30.925  33.408  53.054  1.00  0.00     0.035 C 
BRANCH  35  36
ATOM     36  C   UNL     1      30.745  34.529  52.023  1.00  0.00     0.003 C 
BRANCH  36  37
ATOM     37  C   UNL     1      31.040  34.193  50.569  1.00  0.00     0.002 C 
BRANCH  37  38
ATOM     38  C   UNL     1      32.031  35.217  49.932  1.00  0.00     0.021 C 
BRANCH  38  39
ATOM     39  C   UNL     1      32.196  34.942  48.435  1.00  0.00     0.116 C 
BRANCH  39  40
ATOM     40  N   UNL     1      32.833  33.692  47.989  1.00  0.00    -0.356 N 
ATOM     41  C   UNL     1      34.135  33.234  48.051  1.00  0.00     0.219 C 
ATOM     42  H   UNL     1      32.283  33.083  47.396  1.00  0.00     0.163 HD
ATOM     43  O   UNL     1      34.387  32.194  47.428  1.00  0.00    -0.275 OA
BRANCH  41  44
ATOM     44  C   UNL     1      35.288  33.906  48.859  1.00  0.00     0.100 CG0
ATOM     45  G   UNL     1      36.544  33.965  48.053  1.00  0.00     0.000 G0
ENDBRANCH  41  44
ENDBRANCH  39  40
ENDBRANCH  38  39
ENDBRANCH  37  38
ENDBRANCH  36  37
ENDBRANCH  35  36
ENDBRANCH  34  35
BRANCH  34  46
ATOM     46  C   UNL     1      29.048  31.802  52.536  1.00  0.00     0.240 C 
ATOM     47  N   UNL     1      28.025  32.196  51.717  1.00  0.00    -0.368 N 
ATOM     48  O   UNL     1      29.534  30.675  52.409  1.00  0.00    -0.273 OA
ATOM     49  H   UNL     1      27.506  33.045  51.856  1.00  0.00     0.159 HD
ATOM     50  H   UNL     1      27.655  31.501  51.084  1.00  0.00     0.159 HD
ENDBRANCH  34  46
ENDBRANCH  32  34
ENDBRANCH   2  30
ENDBRANCH   1   2
BRANCH   1  51
ATOM     51  C   UNL     1      28.861  34.780  58.669  1.00  0.00     0.004 C 
BRANCH  51  52
ATOM     52  C   UNL     1      29.488  35.829  59.600  1.00  0.00     0.021 C 
BRANCH  52  53
ATOM     53  C   UNL     1      28.384  36.707  60.177  1.00  0.00     0.115 C 
BRANCH  53  54
ATOM     54  N   UNL     1      27.075  36.079  60.244  1.00  0.00    -0.363 N 
ATOM     55  H   UNL     1      27.066  35.071  60.311  1.00  0.00     0.162 HD
BRANCH  54  56
ATOM     56  C   UNL     1      25.860  36.732  60.215  1.00  0.00     0.166 C 
ATOM     57  S   UNL     1      24.983  37.207  61.552  1.00  0.00    -0.041 S 
BRANCH  56  58
ATOM     58  N   UNL     1      25.407  36.839  58.916  1.00  0.00    -0.362 N 
ATOM     59  H   UNL     1      26.031  37.321  58.281  1.00  0.00     0.162 HD
BRANCH  58  60
ATOM     60  C   UNL     1      24.045  36.612  58.427  1.00  0.00     0.127 C 
BRANCH  60  61
ATOM     61  C   UNL     1      23.857  35.191  57.925  1.00  0.00     0.143 C 
BRANCH  61  62
ATOM     62  C   UNL     1      25.082  34.496  57.379  1.00  0.00     0.305 C 
ATOM     63  O   UNL     1      25.804  33.812  58.095  1.00  0.00    -0.252 OA
BRANCH  62  64
ATOM     64  O   UNL     1      25.322  34.620  56.062  1.00  0.00    -0.481 OA
ATOM     65  H   UNL     1      26.076  35.195  55.813  1.00  0.00     0.296 HD
ENDBRANCH  62  64
ENDBRANCH  61  62
ENDBRANCH  60  61
ENDBRANCH  58  60
ENDBRANCH  56  58
ENDBRANCH  54  56
ENDBRANCH  53  54
ENDBRANCH  52  53
ENDBRANCH  51  52
ENDBRANCH   1  51
TORSDOF 17
ENDMDL
MODEL 9
REMARK VINA RESULT:    -6.379      4.241     11.925
REMARK INTER + INTRA:         -22.350
REMARK INTER:                 -17.842
REMARK INTRA:                  -4.509
REMARK UNBOUND:                -3.478
REMARK SMILES [H]/N=C(\N)NCCCC[C@@H]1NC(=O)CCCCCCC(=O)NCCCCC[C@@H](C(N)=O)NC(=O)[C@@H](CCCCNC(=S)NCCC(=O)O)NC1=O
REMARK SMILES IDX 36 1 35 2 49 3 50 4 51 5 10 7 9 8 8 9 7 10 6 11 5 12 2 13
REMARK SMILES IDX 3 14 1 15 4 16 11 20 12 21 13 23 14 24 15 25 16 26 17 27
REMARK SMILES IDX 18 28 33 30 34 31 32 32 28 34 27 35 26 36 25 37 24 38 23 39
REMARK SMILES IDX 22 40 20 41 21 43 19 44 29 46 30 47 31 48 37 51 38 52 39 53
REMARK SMILES IDX 40 54 41 56 42 57 43 58 44 60 45 61 46 62 47 63 48 64
REMARK H PARENT 49 6 4 17 4 18 5 19 11 22 32 33 22 42 30 49 30 50 40 55 43 59
REMARK H PARENT 48 65
REMARK Flexibility Score: 80.00
ROOT
ATOM      1  C   UNL     1      28.452  35.375  59.059  1.00  0.00     0.035 C 
ENDROOT
BRANCH   1   2
ATOM      2  C   UNL     1      28.236  36.419  60.177  1.00  0.00     0.171 C 
BRANCH   2   3
ATOM      3  N   UNL     1      29.049  37.680  60.075  1.00  0.00    -0.343 N 
ATOM      4  C   UNL     1      30.388  37.703  59.828  1.00  0.00     0.243 C 
ATOM      5  O   UNL     1      31.046  36.757  60.266  1.00  0.00    -0.273 OA
ATOM      6  H   UNL     1      28.835  38.247  60.889  1.00  0.00     0.164 HD
BRANCH   4   7
ATOM      7  C   UNL     1      31.227  38.979  59.423  1.00  0.00     0.171 C 
BRANCH   7   8
ATOM      8  C   UNL     1      32.331  39.069  60.603  1.00  0.00     0.035 C 
BRANCH   8   9
ATOM      9  C   UNL     1      33.879  39.390  60.357  1.00  0.00     0.004 C 
BRANCH   9  10
ATOM     10  C   UNL     1      34.787  38.119  60.400  1.00  0.00     0.021 C 
BRANCH  10  11
ATOM     11  C   UNL     1      34.751  37.182  59.163  1.00  0.00     0.116 C 
BRANCH  11  12
ATOM     12  N   UNL     1      33.983  35.958  59.443  1.00  0.00    -0.357 N 
ATOM     13  N   UNL     1      32.378  34.485  58.760  1.00  0.00    -0.270 NA
ATOM     14  C   UNL     1      33.548  35.031  58.554  1.00  0.00     0.185 C 
ATOM     15  H   UNL     1      32.199  33.823  57.978  1.00  0.00     0.191 HD
ATOM     16  N   UNL     1      34.390  34.708  57.551  1.00  0.00    -0.370 N 
ATOM     17  H   UNL     1      34.151  33.809  57.112  1.00  0.00     0.159 HD
ATOM     18  H   UNL     1      35.352  34.660  57.888  1.00  0.00     0.159 HD
ATOM     19  H   UNL     1      33.252  36.124  60.133  1.00  0.00     0.163 HD
ENDBRANCH  11  12
ENDBRANCH  10  11
ENDBRANCH   9  10
ENDBRANCH   8   9
ENDBRANCH   7   8
BRANCH   7  20
ATOM     20  N   UNL     1      30.789  40.440  58.928  1.00  0.00    -0.344 N 
ATOM     21  C   UNL     1      29.630  41.195  59.206  1.00  0.00     0.220 C 
ATOM     22  H   UNL     1      30.851  40.444  57.918  1.00  0.00     0.164 HD
ATOM     23  O   UNL     1      28.751  40.724  59.932  1.00  0.00    -0.275 OA
BRANCH  21  24
ATOM     24  C   UNL     1      29.453  42.758  58.684  1.00  0.00     0.100 C 
BRANCH  24  25
ATOM     25  C   UNL     1      28.413  43.882  59.052  1.00  0.00     0.010 C 
BRANCH  25  26
ATOM     26  C   UNL     1      28.000  44.808  57.907  1.00  0.00     0.001 C 
BRANCH  26  27
ATOM     27  C   UNL     1      29.071  45.012  56.796  1.00  0.00     0.001 C 
BRANCH  27  28
ATOM     28  C   UNL     1      29.770  46.266  57.246  1.00  0.00     0.010 CG0
ATOM     29  G   UNL     1      29.208  47.592  57.643  1.00  0.00     0.000 G0
ENDBRANCH  27  28
ENDBRANCH  26  27
ENDBRANCH  25  26
ENDBRANCH  24  25
ENDBRANCH  21  24
ENDBRANCH   7  20
ENDBRANCH   4   7
ENDBRANCH   2   3
BRANCH   2  30
ATOM     30  C   UNL     1      26.764  36.973  60.209  1.00  0.00     0.243 C 
ATOM     31  O   UNL     1      26.542  38.182  60.151  1.00  0.00    -0.273 OA
ATOM     32  N   UNL     1      25.768  36.045  59.987  1.00  0.00    -0.343 N 
ATOM     33  H   UNL     1      25.904  35.066  60.216  1.00  0.00     0.164 HD
BRANCH  32  34
ATOM     34  C   UNL     1      24.581  36.331  59.174  1.00  0.00     0.171 C 
BRANCH  34  35
ATOM     35  C   UNL     1      24.246  35.137  58.239  1.00  0.00     0.035 C 
BRANCH  35  36
ATOM     36  C   UNL     1      25.105  33.908  58.562  1.00  0.00     0.003 C 
BRANCH  36  37
ATOM     37  C   UNL     1      24.478  32.826  59.428  1.00  0.00     0.002 C 
BRANCH  37  38
ATOM     38  C   UNL     1      25.374  32.483  60.659  1.00  0.00     0.021 C 
BRANCH  38  39
ATOM     39  C   UNL     1      25.961  31.076  60.518  1.00  0.00     0.116 C 
BRANCH  39  40
ATOM     40  N   UNL     1      25.498  30.198  59.431  1.00  0.00    -0.356 N 
ATOM     41  C   UNL     1      24.739  29.043  59.424  1.00  0.00     0.219 C 
ATOM     42  H   UNL     1      25.901  30.349  58.516  1.00  0.00     0.163 HD
ATOM     43  O   UNL     1      24.661  28.438  58.346  1.00  0.00    -0.275 OA
BRANCH  41  44
ATOM     44  C   UNL     1      23.962  28.469  60.649  1.00  0.00     0.100 CG0
ATOM     45  G   UNL     1      24.614  27.228  61.164  1.00  0.00     0.000 G0
ENDBRANCH  41  44
ENDBRANCH  39  40
ENDBRANCH  38  39
ENDBRANCH  37  38
ENDBRANCH  36  37
ENDBRANCH  35  36
ENDBRANCH  34  35
BRANCH  34  46
ATOM     46  C   UNL     1      23.409  36.599  60.118  1.00  0.00     0.240 C 
ATOM     47  N   UNL     1      22.225  35.989  59.802  1.00  0.00    -0.368 N 
ATOM     48  O   UNL     1      23.491  37.280  61.144  1.00  0.00    -0.273 OA
ATOM     49  H   UNL     1      22.060  35.533  58.923  1.00  0.00     0.159 HD
ATOM     50  H   UNL     1      21.435  36.192  60.398  1.00  0.00     0.159 HD
ENDBRANCH  34  46
ENDBRANCH  32  34
ENDBRANCH   2  30
ENDBRANCH   1   2
BRANCH   1  51
ATOM     51  C   UNL     1      28.809  33.925  59.438  1.00  0.00     0.004 C 
BRANCH  51  52
ATOM     52  C   UNL     1      28.608  32.851  58.358  1.00  0.00     0.021 C 
BRANCH  52  53
ATOM     53  C   UNL     1      29.415  33.231  57.122  1.00  0.00     0.115 C 
BRANCH  53  54
ATOM     54  N   UNL     1      28.892  32.716  55.868  1.00  0.00    -0.363 N 
ATOM     55  H   UNL     1      27.886  32.670  55.789  1.00  0.00     0.162 HD
BRANCH  54  56
ATOM     56  C   UNL     1      29.641  32.281  54.794  1.00  0.00     0.166 C 
ATOM     57  S   UNL     1      31.267  32.572  54.566  1.00  0.00    -0.041 S 
BRANCH  56  58
ATOM     58  N   UNL     1      28.829  31.661  53.867  1.00  0.00    -0.362 N 
ATOM     59  H   UNL     1      28.492  30.744  54.133  1.00  0.00     0.162 HD
BRANCH  58  60
ATOM     60  C   UNL     1      28.645  32.027  52.460  1.00  0.00     0.127 C 
BRANCH  60  61
ATOM     61  C   UNL     1      28.226  33.479  52.307  1.00  0.00     0.143 C 
BRANCH  61  62
ATOM     62  C   UNL     1      26.910  33.875  52.935  1.00  0.00     0.305 C 
ATOM     63  O   UNL     1      26.536  33.392  53.997  1.00  0.00    -0.252 OA
BRANCH  62  64
ATOM     64  O   UNL     1      26.187  34.816  52.303  1.00  0.00    -0.481 OA
ATOM     65  H   UNL     1      26.420  34.982  51.366  1.00  0.00     0.296 HD
ENDBRANCH  62  64
ENDBRANCH  61  62
ENDBRANCH  60  61
ENDBRANCH  58  60
ENDBRANCH  56  58
ENDBRANCH  54  56
ENDBRANCH  53  54
ENDBRANCH  52  53
ENDBRANCH  51  52
ENDBRANCH   1  51
TORSDOF 17
ENDMDL
