REMARK SMILES Cc1ccc(C(=O)Nc2ccc(S(=O)(=O)O)c3cc(S(=O)(=O)O)cc(S(=O)(=O)O)c23)cc1NC(=O)c1cccc(NC(=O)Nc2cccc(C(=O)Nc3cc(C(=O)Nc4ccc(S(=O)(=O)O)c5cc(S(=O)(=O)O)cc(S(=O)(=O)O)c45)ccc3C)c2)c1
REMARK SMILES IDX 43 1 41 2 44 3 42 4 40 7 36 8 86 9 37 10 38 11 39 12 34 13
REMARK SMILES IDX 33 14 35 16 32 17 5 18 31 19 4 20 3 21 2 22 1 23 6 24 8 25
REMARK SMILES IDX 7 27 9 28 25 29 30 30 24 31 17 32 19 33 12 34 18 35 10 36
REMARK SMILES IDX 11 37 26 38 27 39 28 40 29 41 20 43 21 44 22 45 23 46 13 48
REMARK SMILES IDX 14 49 15 50 16 51 45 53 85 54 46 55 49 56 47 57 48 58 50 59
REMARK SMILES IDX 51 60 52 61 53 63 54 64 83 65 55 66 82 67 84 68 81 69 56 70
REMARK SMILES IDX 57 71 58 72 59 74 80 75 60 76 67 77 75 78 61 79 62 80 68 81
REMARK SMILES IDX 74 82 69 83 76 84 77 85 78 86 79 87 63 89 64 90 65 91 66 92
REMARK SMILES IDX 70 94 71 95 72 96 73 97
REMARK H PARENT 41 5 44 6 33 15 8 26 29 42 23 47 16 52 52 62 58 73 79 88 66 93
REMARK H PARENT 73 98
REMARK Flexibility Score: inf
ROOT
ATOM      1  O   UNL     1      16.364  -2.384   0.000  1.00  0.00    -0.248 OA
ATOM      2  N   UNL     1      14.854  -3.232   0.000  1.00  0.00    -0.308 N 
ATOM      3  N   UNL     1      16.344  -4.116   0.000  1.00  0.00    -0.308 N 
ATOM      4  C   UNL     1      15.854  -3.244   0.000  1.00  0.00     0.323 C 
ATOM      5  H   UNL     1      14.538  -3.766   0.000  1.00  0.00     0.171 HD
ATOM      6  H   UNL     1      16.028  -4.649   0.000  1.00  0.00     0.171 HD
ENDROOT
BRANCH   2   7
ATOM      7  C   UNL     1      14.364  -2.361   0.000  1.00  0.00     0.043 A 
ATOM      8  C   UNL     1      12.874  -1.477   0.000  1.00  0.00     0.042 A 
ATOM      9  C   UNL     1      13.364  -2.349   0.000  1.00  0.00     0.040 A 
ATOM     10  C   UNL     1      13.384  -0.617   0.000  1.00  0.00     0.014 A 
ATOM     11  C   UNL     1      14.384  -0.629   0.000  1.00  0.00     0.003 A 
ATOM     12  C   UNL     1      14.874  -1.501   0.000  1.00  0.00     0.026 A 
BRANCH   8  13
ATOM     13  C   UNL     1      11.875  -1.466   0.000  1.00  0.00     0.255 C 
ATOM     14  N   UNL     1      11.365  -2.326   0.000  1.00  0.00    -0.322 N 
ATOM     15  H   UNL     1      11.668  -2.867   0.000  1.00  0.00     0.170 HD
ATOM     16  O   UNL     1      11.385  -0.594   0.000  1.00  0.00    -0.269 OA
BRANCH  14  17
ATOM     17  C   UNL     1      10.365  -2.314   0.000  1.00  0.00     0.045 A 
ATOM     18  C   UNL     1       8.875  -1.431   0.000  1.00  0.00     0.042 A 
ATOM     19  C   UNL     1       9.875  -1.443   0.000  1.00  0.00     0.040 A 
ATOM     20  C   UNL     1       8.365  -2.291   0.000  1.00  0.00     0.014 A 
ATOM     21  C   UNL     1       8.855  -3.163   0.000  1.00  0.00     0.006 A 
ATOM     22  C   UNL     1       9.855  -3.175   0.000  1.00  0.00    -0.027 A 
ATOM     23  C   UNL     1      10.345  -4.046   0.000  1.00  0.00     0.046 C 
BRANCH  18  24
ATOM     24  C   UNL     1       8.385  -0.559   0.000  1.00  0.00     0.255 C 
ATOM     25  N   UNL     1       7.385  -0.548   0.000  1.00  0.00    -0.321 N 
ATOM     26  H   UNL     1       7.069  -1.081   0.000  1.00  0.00     0.170 HD
ATOM     27  O   UNL     1       8.895   0.301   0.000  1.00  0.00    -0.269 OA
BRANCH  25  28
ATOM     28  C   UNL     1       6.895   0.324   0.000  1.00  0.00     0.050 A 
ATOM     29  C   UNL     1       5.135   0.358   0.000  1.00  0.00     0.105 A 
ATOM     30  C   UNL     1       6.001   0.859   0.000  1.00  0.00     0.028 A 
ATOM     31  C   UNL     1       4.269   0.859   0.000  1.00  0.00     0.046 A 
ATOM     32  C   UNL     1       6.001   1.859   0.000  1.00  0.00     0.008 A 
ATOM     33  C   UNL     1       4.269   1.859   0.000  1.00  0.00     0.096 A 
ATOM     34  C   UNL     1       6.895   2.393   0.000  1.00  0.00     0.102 A 
ATOM     35  C   UNL     1       5.135   2.358   0.000  1.00  0.00     0.033 A 
ATOM     36  C   UNL     1       7.801   0.838   0.000  1.00  0.00     0.028 A 
ATOM     37  C   UNL     1       7.801   1.879   0.000  1.00  0.00     0.025 A 
BRANCH  29  38
ATOM     38  S   UNL     1       4.635  -0.508   0.000  1.00  0.00     0.295 S 
ATOM     39  O   UNL     1       3.769  -0.007   0.000  1.00  0.00    -0.194 OA
ATOM     40  O   UNL     1       5.501  -1.008   0.000  1.00  0.00    -0.194 OA
BRANCH  38  41
ATOM     41  O   UNL     1       4.135  -1.374   0.000  1.00  0.00    -0.282 OA
ATOM     42  H   UNL     1       3.515  -1.374   0.000  1.00  0.00     0.234 HD
ENDBRANCH  38  41
ENDBRANCH  29  38
BRANCH  33  43
ATOM     43  S   UNL     1       3.403   2.358   0.000  1.00  0.00     0.294 S 
ATOM     44  O   UNL     1       2.903   1.492   0.000  1.00  0.00    -0.194 OA
ATOM     45  O   UNL     1       3.903   3.224   0.000  1.00  0.00    -0.194 OA
BRANCH  43  46
ATOM     46  O   UNL     1       2.537   2.858   0.000  1.00  0.00    -0.282 OA
ATOM     47  H   UNL     1       2.000   2.549   0.000  1.00  0.00     0.234 HD
ENDBRANCH  43  46
ENDBRANCH  33  43
BRANCH  34  48
ATOM     48  S   UNL     1       6.883   3.393   0.000  1.00  0.00     0.295 S 
ATOM     49  O   UNL     1       7.883   3.405   0.000  1.00  0.00    -0.194 OA
ATOM     50  O   UNL     1       5.883   3.382   0.000  1.00  0.00    -0.194 OA
BRANCH  48  51
ATOM     51  O   UNL     1       6.872   4.393   0.000  1.00  0.00    -0.282 OA
ATOM     52  H   UNL     1       7.405   4.709   0.000  1.00  0.00     0.234 HD
ENDBRANCH  48  51
ENDBRANCH  34  48
ENDBRANCH  25  28
ENDBRANCH  18  24
ENDBRANCH  14  17
ENDBRANCH   8  13
ENDBRANCH   2   7
BRANCH   3  53
ATOM     53  C   UNL     1      17.344  -4.127   0.000  1.00  0.00     0.043 A 
ATOM     54  C   UNL     1      17.854  -3.267   0.000  1.00  0.00     0.040 A 
ATOM     55  C   UNL     1      17.834  -4.999   0.000  1.00  0.00     0.026 A 
ATOM     56  C   UNL     1      18.854  -3.279   0.000  1.00  0.00     0.042 A 
ATOM     57  C   UNL     1      18.834  -5.011   0.000  1.00  0.00     0.003 A 
ATOM     58  C   UNL     1      19.344  -4.151   0.000  1.00  0.00     0.014 A 
BRANCH  56  59
ATOM     59  C   UNL     1      19.364  -2.419   0.000  1.00  0.00     0.255 C 
ATOM     60  O   UNL     1      18.874  -1.547   0.000  1.00  0.00    -0.269 OA
ATOM     61  N   UNL     1      20.364  -2.430   0.000  1.00  0.00    -0.322 N 
ATOM     62  H   UNL     1      20.668  -2.971   0.000  1.00  0.00     0.170 HD
BRANCH  61  63
ATOM     63  C   UNL     1      20.874  -1.570   0.000  1.00  0.00     0.045 A 
ATOM     64  C   UNL     1      21.874  -1.581   0.000  1.00  0.00     0.040 A 
ATOM     65  C   UNL     1      20.384  -0.698   0.000  1.00  0.00    -0.027 A 
ATOM     66  C   UNL     1      22.384  -0.721   0.000  1.00  0.00     0.042 A 
ATOM     67  C   UNL     1      20.894   0.162   0.000  1.00  0.00     0.006 A 
ATOM     68  C   UNL     1      19.384  -0.687   0.000  1.00  0.00     0.046 C 
ATOM     69  C   UNL     1      21.894   0.150   0.000  1.00  0.00     0.014 A 
BRANCH  66  70
ATOM     70  C   UNL     1      23.384  -0.733   0.000  1.00  0.00     0.255 C 
ATOM     71  O   UNL     1      23.874  -1.605   0.000  1.00  0.00    -0.269 OA
ATOM     72  N   UNL     1      23.894   0.127   0.000  1.00  0.00    -0.321 N 
ATOM     73  H   UNL     1      23.360   0.444   0.000  1.00  0.00     0.170 HD
BRANCH  72  74
ATOM     74  C   UNL     1      24.894   0.116   0.000  1.00  0.00     0.050 A 
ATOM     75  C   UNL     1      25.428   1.010   0.000  1.00  0.00     0.028 A 
ATOM     76  C   UNL     1      25.408  -0.790   0.000  1.00  0.00     0.028 A 
ATOM     77  C   UNL     1      26.428   1.010   0.000  1.00  0.00     0.008 A 
ATOM     78  C   UNL     1      24.928   1.876   0.000  1.00  0.00     0.105 A 
ATOM     79  C   UNL     1      26.449  -0.790   0.000  1.00  0.00     0.025 A 
ATOM     80  C   UNL     1      26.963   0.116   0.000  1.00  0.00     0.102 A 
ATOM     81  C   UNL     1      26.928   1.876   0.000  1.00  0.00     0.033 A 
ATOM     82  C   UNL     1      25.428   2.742   0.000  1.00  0.00     0.046 A 
ATOM     83  C   UNL     1      26.428   2.742   0.000  1.00  0.00     0.096 A 
BRANCH  78  84
ATOM     84  S   UNL     1      24.062   2.376   0.000  1.00  0.00     0.295 S 
ATOM     85  O   UNL     1      23.196   2.876   0.000  1.00  0.00    -0.194 OA
ATOM     86  O   UNL     1      23.562   1.510   0.000  1.00  0.00    -0.194 OA
BRANCH  84  87
ATOM     87  O   UNL     1      24.562   3.242   0.000  1.00  0.00    -0.282 OA
ATOM     88  H   UNL     1      24.252   3.779   0.000  1.00  0.00     0.234 HD
ENDBRANCH  84  87
ENDBRANCH  78  84
BRANCH  80  89
ATOM     89  S   UNL     1      27.963   0.127   0.000  1.00  0.00     0.295 S 
ATOM     90  O   UNL     1      27.975  -0.873   0.000  1.00  0.00    -0.194 OA
ATOM     91  O   UNL     1      27.951   1.127   0.000  1.00  0.00    -0.194 OA
BRANCH  89  92
ATOM     92  O   UNL     1      28.963   0.139   0.000  1.00  0.00    -0.282 OA
ATOM     93  H   UNL     1      29.279  -0.395   0.000  1.00  0.00     0.234 HD
ENDBRANCH  89  92
ENDBRANCH  80  89
BRANCH  83  94
ATOM     94  S   UNL     1      26.928   3.608   0.000  1.00  0.00     0.294 S 
ATOM     95  O   UNL     1      26.062   4.108   0.000  1.00  0.00    -0.194 OA
ATOM     96  O   UNL     1      27.794   3.108   0.000  1.00  0.00    -0.194 OA
BRANCH  94  97
ATOM     97  O   UNL     1      27.428   4.474   0.000  1.00  0.00    -0.282 OA
ATOM     98  H   UNL     1      27.118   5.011   0.000  1.00  0.00     0.234 HD
ENDBRANCH  94  97
ENDBRANCH  83  94
ENDBRANCH  72  74
ENDBRANCH  66  70
ENDBRANCH  61  63
ENDBRANCH  56  59
ENDBRANCH   3  53
TORSDOF 22
