MODEL 1
REMARK VINA RESULT:   -10.900      0.000      0.000
REMARK INTER + INTRA:          19.727
REMARK INTER:                 -23.006
REMARK INTRA:                  42.733
REMARK UNBOUND:                42.733
REMARK SMILES Cc1ccc(C(=O)Nc2ccc(S(=O)(=O)O)c3cc(S(=O)(=O)O)cc(S(=O)(=O)O)c23)cc1NC(=O)c1cccc(NC(=O)Nc2cccc(C(=O)Nc3cc(C(=O)Nc4ccc(S(=O)(=O)O)c5cc(S(=O)(=O)O)cc(S(=O)(=O)O)c45)ccc3C)c2)c1
REMARK SMILES IDX 43 1 41 2 44 3 42 4 40 7 36 8 86 9 37 10 38 11 39 12 34 13
REMARK SMILES IDX 33 14 35 16 32 17 5 18 31 19 4 20 3 21 2 22 1 23 6 24 8 25
REMARK SMILES IDX 7 27 9 28 25 29 30 30 24 31 17 32 19 33 12 34 18 35 10 36
REMARK SMILES IDX 11 37 26 38 27 39 28 40 29 41 20 43 21 44 22 45 23 46 13 48
REMARK SMILES IDX 14 49 15 50 16 51 45 53 85 54 46 55 49 56 47 57 48 58 50 59
REMARK SMILES IDX 51 60 52 61 53 63 54 64 83 65 55 66 82 67 84 68 81 69 56 70
REMARK SMILES IDX 57 71 58 72 59 74 80 75 60 76 67 77 75 78 61 79 62 80 68 81
REMARK SMILES IDX 74 82 69 83 76 84 77 85 78 86 79 87 63 89 64 90 65 91 66 92
REMARK SMILES IDX 70 94 71 95 72 96 73 97
REMARK H PARENT 41 5 44 6 33 15 8 26 29 42 23 47 16 52 52 62 58 73 79 88 66 93
REMARK H PARENT 73 98
REMARK Flexibility Score: inf
ROOT
ATOM      1  O   UNL     1      31.093  -0.989  34.957  1.00  0.00    -0.248 OA
ATOM      2  N   UNL     1      30.215  -1.053  36.449  1.00  0.00    -0.308 N 
ATOM      3  N   UNL     1      31.213   0.317  36.089  1.00  0.00    -0.308 N 
ATOM      4  C   UNL     1      30.841  -0.575  35.832  1.00  0.00     0.323 C 
ATOM      5  H   UNL     1      30.059  -0.796  36.991  1.00  0.00     0.171 HD
ATOM      6  H   UNL     1      31.056   0.573  36.631  1.00  0.00     0.171 HD
ENDROOT
BRANCH   2   7
ATOM      7  C   UNL     1      29.843  -1.945  36.192  1.00  0.00     0.043 A 
ATOM      8  C   UNL     1      30.059  -3.645  35.937  1.00  0.00     0.042 A 
ATOM      9  C   UNL     1      30.432  -2.753  36.194  1.00  0.00     0.040 A 
ATOM     10  C   UNL     1      29.097  -3.728  35.678  1.00  0.00     0.014 A 
ATOM     11  C   UNL     1      28.508  -2.920  35.676  1.00  0.00     0.003 A 
ATOM     12  C   UNL     1      28.881  -2.028  35.933  1.00  0.00     0.026 A 
BRANCH   8  13
ATOM     13  C   UNL     1      30.648  -4.451  35.939  1.00  0.00     0.255 C 
ATOM     14  N   UNL     1      30.610  -5.098  36.701  1.00  0.00    -0.322 N 
ATOM     15  H   UNL     1      30.220  -4.999  37.173  1.00  0.00     0.170 HD
ATOM     16  O   UNL     1      31.277  -4.612  35.178  1.00  0.00    -0.269 OA
BRANCH  14  17
ATOM     17  C   UNL     1      31.200  -5.905  36.702  1.00  0.00     0.045 A 
ATOM     18  C   UNL     1      32.781  -6.607  36.633  1.00  0.00     0.042 A 
ATOM     19  C   UNL     1      32.191  -5.800  36.632  1.00  0.00     0.040 A 
ATOM     20  C   UNL     1      32.379  -7.520  36.704  1.00  0.00     0.014 A 
ATOM     21  C   UNL     1      31.387  -7.626  36.773  1.00  0.00     0.006 A 
ATOM     22  C   UNL     1      30.797  -6.818  36.772  1.00  0.00    -0.027 A 
ATOM     23  C   UNL     1      29.806  -6.923  36.842  1.00  0.00     0.046 C 
BRANCH  18  24
ATOM     24  C   UNL     1      33.774  -6.502  36.564  1.00  0.00     0.255 C 
ATOM     25  N   UNL     1      34.327  -6.421  37.393  1.00  0.00    -0.321 N 
ATOM     26  H   UNL     1      34.055  -6.436  37.950  1.00  0.00     0.170 HD
ATOM     27  O   UNL     1      34.212  -6.477  35.666  1.00  0.00    -0.269 OA
BRANCH  25  28
ATOM     28  C   UNL     1      35.319  -6.316  37.324  1.00  0.00     0.050 A 
ATOM     29  C   UNL     1      36.048  -4.713  37.327  1.00  0.00     0.105 A 
ATOM     30  C   UNL     1      36.163  -5.706  37.283  1.00  0.00     0.028 A 
ATOM     31  C   UNL     1      36.850  -4.116  37.289  1.00  0.00     0.046 A 
ATOM     32  C   UNL     1      37.078  -6.101  37.202  1.00  0.00     0.008 A 
ATOM     33  C   UNL     1      37.765  -4.511  37.208  1.00  0.00     0.096 A 
ATOM     34  C   UNL     1      37.212  -7.133  37.155  1.00  0.00     0.102 A 
ATOM     35  C   UNL     1      37.878  -5.503  37.164  1.00  0.00     0.033 A 
ATOM     36  C   UNL     1      35.430  -7.350  37.279  1.00  0.00     0.028 A 
ATOM     37  C   UNL     1      36.383  -7.762  37.194  1.00  0.00     0.025 A 
BRANCH  29  38
ATOM     38  S   UNL     1      35.454  -3.912  37.399  1.00  0.00     0.295 S 
ATOM     39  O   UNL     1      35.500  -3.789  36.407  1.00  0.00    -0.194 OA
ATOM     40  O   UNL     1      35.407  -4.036  38.390  1.00  0.00    -0.194 OA
BRANCH  38  41
ATOM     41  O   UNL     1      34.859  -3.111  37.471  1.00  0.00    -0.282 OA
ATOM     42  H   UNL     1      34.801  -2.724  36.991  1.00  0.00     0.234 HD
ENDBRANCH  38  41
ENDBRANCH  29  38
BRANCH  33  43
ATOM     43  S   UNL     1      38.565  -3.913  37.170  1.00  0.00     0.294 S 
ATOM     44  O   UNL     1      38.573  -3.859  38.168  1.00  0.00    -0.194 OA
ATOM     45  O   UNL     1      38.557  -3.967  36.171  1.00  0.00    -0.194 OA
BRANCH  43  46
ATOM     46  O   UNL     1      39.365  -3.315  37.131  1.00  0.00    -0.282 OA
ATOM     47  H   UNL     1      39.441  -2.928  36.653  1.00  0.00     0.234 HD
ENDBRANCH  43  46
ENDBRANCH  33  43
BRANCH  34  48
ATOM     48  S   UNL     1      38.132  -7.517  37.074  1.00  0.00     0.295 S 
ATOM     49  O   UNL     1      38.217  -7.524  38.070  1.00  0.00    -0.194 OA
ATOM     50  O   UNL     1      38.048  -7.510  36.078  1.00  0.00    -0.194 OA
BRANCH  48  51
ATOM     51  O   UNL     1      39.052  -7.901  36.994  1.00  0.00    -0.282 OA
ATOM     52  H   UNL     1      39.528  -7.535  36.840  1.00  0.00     0.234 HD
ENDBRANCH  48  51
ENDBRANCH  34  48
ENDBRANCH  25  28
ENDBRANCH  18  24
ENDBRANCH  14  17
ENDBRANCH   8  13
ENDBRANCH   2   7
BRANCH   3  53
ATOM     53  C   UNL     1      31.838   0.794  35.471  1.00  0.00     0.043 A 
ATOM     54  C   UNL     1      32.765   0.447  35.331  1.00  0.00     0.040 A 
ATOM     55  C   UNL     1      31.535   1.619  34.994  1.00  0.00     0.026 A 
ATOM     56  C   UNL     1      33.389   0.925  34.713  1.00  0.00     0.042 A 
ATOM     57  C   UNL     1      32.160   2.097  34.376  1.00  0.00     0.003 A 
ATOM     58  C   UNL     1      33.087   1.750  34.236  1.00  0.00     0.014 A 
BRANCH  56  59
ATOM     59  C   UNL     1      34.316   0.578  34.573  1.00  0.00     0.255 C 
ATOM     60  O   UNL     1      34.770   0.705  33.690  1.00  0.00    -0.269 OA
ATOM     61  N   UNL     1      34.791   0.104  35.314  1.00  0.00    -0.322 N 
ATOM     62  H   UNL     1      34.510   0.025  35.862  1.00  0.00     0.170 HD
BRANCH  61  63
ATOM     63  C   UNL     1      35.718  -0.244  35.174  1.00  0.00     0.045 A 
ATOM     64  C   UNL     1      35.884  -0.975  34.512  1.00  0.00     0.040 A 
ATOM     65  C   UNL     1      36.480   0.141  35.695  1.00  0.00    -0.027 A 
ATOM     66  C   UNL     1      36.811  -1.322  34.372  1.00  0.00     0.042 A 
ATOM     67  C   UNL     1      37.408  -0.206  35.554  1.00  0.00     0.006 A 
ATOM     68  C   UNL     1      36.315   0.873  36.356  1.00  0.00     0.046 C 
ATOM     69  C   UNL     1      37.572  -0.938  34.893  1.00  0.00     0.014 A 
BRANCH  66  70
ATOM     70  C   UNL     1      36.976  -2.054  33.710  1.00  0.00     0.255 C 
ATOM     71  O   UNL     1      37.826  -2.070  33.183  1.00  0.00    -0.269 OA
ATOM     72  N   UNL     1      36.291  -2.770  33.576  1.00  0.00    -0.321 N 
ATOM     73  H   UNL     1      35.927  -2.502  34.002  1.00  0.00     0.170 HD
BRANCH  72  74
ATOM     74  C   UNL     1      36.455  -3.502  32.915  1.00  0.00     0.050 A 
ATOM     75  C   UNL     1      35.655  -4.039  32.518  1.00  0.00     0.028 A 
ATOM     76  C   UNL     1      37.426  -3.732  32.619  1.00  0.00     0.028 A 
ATOM     77  C   UNL     1      35.809  -4.773  31.856  1.00  0.00     0.008 A 
ATOM     78  C   UNL     1      34.725  -3.812  32.807  1.00  0.00     0.105 A 
ATOM     79  C   UNL     1      37.586  -4.496  31.930  1.00  0.00     0.025 A 
ATOM     80  C   UNL     1      36.772  -5.020  31.546  1.00  0.00     0.102 A 
ATOM     81  C   UNL     1      35.032  -5.280  31.484  1.00  0.00     0.033 A 
ATOM     82  C   UNL     1      33.948  -4.319  32.435  1.00  0.00     0.046 A 
ATOM     83  C   UNL     1      34.101  -5.053  31.773  1.00  0.00     0.096 A 
BRANCH  78  84
ATOM     84  S   UNL     1      34.100  -3.258  33.356  1.00  0.00     0.295 S 
ATOM     85  O   UNL     1      33.475  -2.703  33.905  1.00  0.00    -0.194 OA
ATOM     86  O   UNL     1      34.048  -2.585  32.618  1.00  0.00    -0.194 OA
BRANCH  84  87
ATOM     87  O   UNL     1      34.152  -3.930  34.095  1.00  0.00    -0.282 OA
ATOM     88  H   UNL     1      34.026  -3.761  34.678  1.00  0.00     0.234 HD
ENDBRANCH  84  87
ENDBRANCH  78  84
BRANCH  80  89
ATOM     89  S   UNL     1      36.914  -5.756  30.883  1.00  0.00     0.295 S 
ATOM     90  O   UNL     1      36.829  -5.099  30.134  1.00  0.00    -0.194 OA
ATOM     91  O   UNL     1      36.999  -6.413  31.633  1.00  0.00    -0.194 OA
BRANCH  89  92
ATOM     92  O   UNL     1      37.056  -6.492  30.222  1.00  0.00    -0.282 OA
ATOM     93  H   UNL     1      36.915  -7.077  30.374  1.00  0.00     0.234 HD
ENDBRANCH  89  92
ENDBRANCH  80  89
BRANCH  83  94
ATOM     94  S   UNL     1      33.324  -5.560  31.400  1.00  0.00     0.294 S 
ATOM     95  O   UNL     1      33.322  -4.966  30.596  1.00  0.00    -0.194 OA
ATOM     96  O   UNL     1      33.327  -6.155  32.204  1.00  0.00    -0.194 OA
BRANCH  94  97
ATOM     97  O   UNL     1      32.547  -6.068  31.027  1.00  0.00    -0.282 OA
ATOM     98  H   UNL     1      32.615  -6.662  30.863  1.00  0.00     0.234 HD
ENDBRANCH  94  97
ENDBRANCH  83  94
ENDBRANCH  72  74
ENDBRANCH  66  70
ENDBRANCH  61  63
ENDBRANCH  56  59
ENDBRANCH   3  53
TORSDOF 22
ENDMDL
MODEL 2
REMARK VINA RESULT:   -10.796      2.644      5.075
REMARK INTER + INTRA:          19.946
REMARK INTER:                 -24.107
REMARK INTRA:                  44.053
REMARK UNBOUND:                42.733
REMARK SMILES Cc1ccc(C(=O)Nc2ccc(S(=O)(=O)O)c3cc(S(=O)(=O)O)cc(S(=O)(=O)O)c23)cc1NC(=O)c1cccc(NC(=O)Nc2cccc(C(=O)Nc3cc(C(=O)Nc4ccc(S(=O)(=O)O)c5cc(S(=O)(=O)O)cc(S(=O)(=O)O)c45)ccc3C)c2)c1
REMARK SMILES IDX 43 1 41 2 44 3 42 4 40 7 36 8 86 9 37 10 38 11 39 12 34 13
REMARK SMILES IDX 33 14 35 16 32 17 5 18 31 19 4 20 3 21 2 22 1 23 6 24 8 25
REMARK SMILES IDX 7 27 9 28 25 29 30 30 24 31 17 32 19 33 12 34 18 35 10 36
REMARK SMILES IDX 11 37 26 38 27 39 28 40 29 41 20 43 21 44 22 45 23 46 13 48
REMARK SMILES IDX 14 49 15 50 16 51 45 53 85 54 46 55 49 56 47 57 48 58 50 59
REMARK SMILES IDX 51 60 52 61 53 63 54 64 83 65 55 66 82 67 84 68 81 69 56 70
REMARK SMILES IDX 57 71 58 72 59 74 80 75 60 76 67 77 75 78 61 79 62 80 68 81
REMARK SMILES IDX 74 82 69 83 76 84 77 85 78 86 79 87 63 89 64 90 65 91 66 92
REMARK SMILES IDX 70 94 71 95 72 96 73 97
REMARK H PARENT 41 5 44 6 33 15 8 26 29 42 23 47 16 52 52 62 58 73 79 88 66 93
REMARK H PARENT 73 98
REMARK Flexibility Score: inf
ROOT
ATOM      1  O   UNL     1      29.659   1.280  32.256  1.00  0.00    -0.248 OA
ATOM      2  N   UNL     1      28.602   1.098  33.617  1.00  0.00    -0.308 N 
ATOM      3  N   UNL     1      29.131   2.676  33.135  1.00  0.00    -0.308 N 
ATOM      4  C   UNL     1      29.131   1.685  33.003  1.00  0.00     0.323 C 
ATOM      5  H   UNL     1      28.275   1.350  34.080  1.00  0.00     0.171 HD
ATOM      6  H   UNL     1      28.804   2.927  33.598  1.00  0.00     0.171 HD
ENDROOT
BRANCH   2   7
ATOM      7  C   UNL     1      28.602   0.108  33.485  1.00  0.00     0.043 A 
ATOM      8  C   UNL     1      29.286  -1.450  33.810  1.00  0.00     0.042 A 
ATOM      9  C   UNL     1      29.287  -0.459  33.942  1.00  0.00     0.040 A 
ATOM     10  C   UNL     1      28.600  -1.875  33.220  1.00  0.00     0.014 A 
ATOM     11  C   UNL     1      27.915  -1.309  32.762  1.00  0.00     0.003 A 
ATOM     12  C   UNL     1      27.915  -0.317  32.895  1.00  0.00     0.026 A 
BRANCH   8  13
ATOM     13  C   UNL     1      29.971  -2.015  34.267  1.00  0.00     0.255 C 
ATOM     14  N   UNL     1      29.690  -2.682  34.957  1.00  0.00    -0.322 N 
ATOM     15  H   UNL     1      29.091  -2.746  35.102  1.00  0.00     0.170 HD
ATOM     16  O   UNL     1      30.939  -1.914  34.035  1.00  0.00    -0.269 OA
BRANCH  14  17
ATOM     17  C   UNL     1      30.377  -3.248  35.415  1.00  0.00     0.045 A 
ATOM     18  C   UNL     1      31.798  -4.234  35.343  1.00  0.00     0.042 A 
ATOM     19  C   UNL     1      31.112  -3.669  34.885  1.00  0.00     0.040 A 
ATOM     20  C   UNL     1      31.749  -4.378  36.331  1.00  0.00     0.014 A 
ATOM     21  C   UNL     1      31.013  -3.957  36.862  1.00  0.00     0.006 A 
ATOM     22  C   UNL     1      30.327  -3.392  36.404  1.00  0.00    -0.027 A 
ATOM     23  C   UNL     1      29.591  -2.971  36.934  1.00  0.00     0.046 C 
BRANCH  18  24
ATOM     24  C   UNL     1      32.534  -4.655  34.812  1.00  0.00     0.255 C 
ATOM     25  N   UNL     1      33.292  -4.095  34.477  1.00  0.00    -0.321 N 
ATOM     26  H   UNL     1      33.306  -3.488  34.597  1.00  0.00     0.170 HD
ATOM     27  O   UNL     1      32.512  -5.636  34.617  1.00  0.00    -0.269 OA
BRANCH  25  28
ATOM     28  C   UNL     1      34.028  -4.516  33.946  1.00  0.00     0.050 A 
ATOM     29  C   UNL     1      33.941  -4.571  32.189  1.00  0.00     0.105 A 
ATOM     30  C   UNL     1      34.440  -4.788  33.029  1.00  0.00     0.028 A 
ATOM     31  C   UNL     1      34.326  -4.826  31.301  1.00  0.00     0.046 A 
ATOM     32  C   UNL     1      35.321  -5.258  32.981  1.00  0.00     0.008 A 
ATOM     33  C   UNL     1      35.207  -5.297  31.253  1.00  0.00     0.096 A 
ATOM     34  C   UNL     1      35.851  -5.490  33.847  1.00  0.00     0.102 A 
ATOM     35  C   UNL     1      35.704  -5.512  32.093  1.00  0.00     0.033 A 
ATOM     36  C   UNL     1      34.541  -4.738  34.825  1.00  0.00     0.028 A 
ATOM     37  C   UNL     1      35.458  -5.228  34.775  1.00  0.00     0.025 A 
BRANCH  29  38
ATOM     38  S   UNL     1      33.145  -4.175  31.731  1.00  0.00     0.295 S 
ATOM     39  O   UNL     1      32.735  -5.084  31.659  1.00  0.00    -0.194 OA
ATOM     40  O   UNL     1      33.556  -3.266  31.804  1.00  0.00    -0.194 OA
BRANCH  38  41
ATOM     41  O   UNL     1      32.349  -3.778  31.274  1.00  0.00    -0.282 OA
ATOM     42  H   UNL     1      31.974  -3.393  31.583  1.00  0.00     0.234 HD
ENDBRANCH  38  41
ENDBRANCH  29  38
BRANCH  33  43
ATOM     43  S   UNL     1      35.589  -5.551  30.365  1.00  0.00     0.294 S 
ATOM     44  O   UNL     1      35.070  -6.405  30.385  1.00  0.00    -0.194 OA
ATOM     45  O   UNL     1      36.108  -4.696  30.345  1.00  0.00    -0.194 OA
BRANCH  43  46
ATOM     46  O   UNL     1      35.972  -5.804  29.477  1.00  0.00    -0.282 OA
ATOM     47  H   UNL     1      35.988  -5.390  29.016  1.00  0.00     0.234 HD
ENDBRANCH  43  46
ENDBRANCH  33  43
BRANCH  34  48
ATOM     48  S   UNL     1      36.731  -5.961  33.787  1.00  0.00     0.295 S 
ATOM     49  O   UNL     1      36.262  -6.843  33.829  1.00  0.00    -0.194 OA
ATOM     50  O   UNL     1      37.201  -5.079  33.745  1.00  0.00    -0.194 OA
BRANCH  48  51
ATOM     51  O   UNL     1      37.611  -6.433  33.727  1.00  0.00    -0.282 OA
ATOM     52  H   UNL     1      38.009  -6.289  33.275  1.00  0.00     0.234 HD
ENDBRANCH  48  51
ENDBRANCH  34  48
ENDBRANCH  25  28
ENDBRANCH  18  24
ENDBRANCH  14  17
ENDBRANCH   8  13
ENDBRANCH   2   7
BRANCH   3  53
ATOM     53  C   UNL     1      29.659   3.262  32.521  1.00  0.00     0.043 A 
ATOM     54  C   UNL     1      30.653   3.164  32.467  1.00  0.00     0.040 A 
ATOM     55  C   UNL     1      29.194   3.947  31.960  1.00  0.00     0.026 A 
ATOM     56  C   UNL     1      31.181   3.750  31.852  1.00  0.00     0.042 A 
ATOM     57  C   UNL     1      29.722   4.534  31.346  1.00  0.00     0.003 A 
ATOM     58  C   UNL     1      30.715   4.435  31.292  1.00  0.00     0.014 A 
BRANCH  56  59
ATOM     59  C   UNL     1      32.174   3.651  31.798  1.00  0.00     0.255 C 
ATOM     60  O   UNL     1      32.578   2.758  31.600  1.00  0.00    -0.269 OA
ATOM     61  N   UNL     1      32.765   4.445  31.942  1.00  0.00    -0.322 N 
ATOM     62  H   UNL     1      32.514   5.000  32.065  1.00  0.00     0.170 HD
BRANCH  61  63
ATOM     63  C   UNL     1      33.758   4.347  31.888  1.00  0.00     0.045 A 
ATOM     64  C   UNL     1      34.187   3.469  32.104  1.00  0.00     0.040 A 
ATOM     65  C   UNL     1      34.324   5.126  31.618  1.00  0.00    -0.027 A 
ATOM     66  C   UNL     1      35.180   3.370  32.050  1.00  0.00     0.042 A 
ATOM     67  C   UNL     1      35.318   5.027  31.564  1.00  0.00     0.006 A 
ATOM     68  C   UNL     1      33.896   6.003  31.402  1.00  0.00     0.046 C 
ATOM     69  C   UNL     1      35.745   4.149  31.780  1.00  0.00     0.014 A 
BRANCH  66  70
ATOM     70  C   UNL     1      35.608   2.492  32.266  1.00  0.00     0.255 C 
ATOM     71  O   UNL     1      36.167   2.026  31.580  1.00  0.00    -0.269 OA
ATOM     72  N   UNL     1      35.475   2.080  33.167  1.00  0.00    -0.321 N 
ATOM     73  H   UNL     1      35.121   2.562  33.336  1.00  0.00     0.170 HD
BRANCH  72  74
ATOM     74  C   UNL     1      35.902   1.203  33.384  1.00  0.00     0.050 A 
ATOM     75  C   UNL     1      35.478   0.576  34.100  1.00  0.00     0.028 A 
ATOM     76  C   UNL     1      36.774   0.909  32.895  1.00  0.00     0.028 A 
ATOM     77  C   UNL     1      35.897  -0.304  34.324  1.00  0.00     0.008 A 
ATOM     78  C   UNL     1      34.641   0.864  34.565  1.00  0.00     0.105 A 
ATOM     79  C   UNL     1      37.210  -0.007  33.129  1.00  0.00     0.025 A 
ATOM     80  C   UNL     1      36.769  -0.618  33.848  1.00  0.00     0.102 A 
ATOM     81  C   UNL     1      35.480  -0.895  35.014  1.00  0.00     0.033 A 
ATOM     82  C   UNL     1      34.224   0.273  35.255  1.00  0.00     0.046 A 
ATOM     83  C   UNL     1      34.643  -0.607  35.479  1.00  0.00     0.096 A 
BRANCH  78  84
ATOM     84  S   UNL     1      33.916   1.539  34.704  1.00  0.00     0.295 S 
ATOM     85  O   UNL     1      33.191   2.213  34.844  1.00  0.00    -0.194 OA
ATOM     86  O   UNL     1      34.470   1.990  35.404  1.00  0.00    -0.194 OA
BRANCH  84  87
ATOM     87  O   UNL     1      33.363   1.088  34.004  1.00  0.00    -0.282 OA
ATOM     88  H   UNL     1      32.897   1.394  33.732  1.00  0.00     0.234 HD
ENDBRANCH  84  87
ENDBRANCH  78  84
BRANCH  80  89
ATOM     89  S   UNL     1      37.180  -1.500  34.080  1.00  0.00     0.295 S 
ATOM     90  O   UNL     1      36.655  -1.937  33.350  1.00  0.00    -0.194 OA
ATOM     91  O   UNL     1      37.706  -1.062  34.809  1.00  0.00    -0.194 OA
BRANCH  89  92
ATOM     92  O   UNL     1      37.592  -2.381  34.312  1.00  0.00    -0.282 OA
ATOM     93  H   UNL     1      38.207  -2.426  34.383  1.00  0.00     0.234 HD
ENDBRANCH  89  92
ENDBRANCH  80  89
BRANCH  83  94
ATOM     94  S   UNL     1      34.225  -1.199  36.168  1.00  0.00     0.294 S 
ATOM     95  O   UNL     1      33.485  -1.417  35.532  1.00  0.00    -0.194 OA
ATOM     96  O   UNL     1      34.965  -0.980  36.804  1.00  0.00    -0.194 OA
BRANCH  94  97
ATOM     97  O   UNL     1      33.807  -1.790  36.858  1.00  0.00    -0.282 OA
ATOM     98  H   UNL     1      34.162  -2.071  37.281  1.00  0.00     0.234 HD
ENDBRANCH  94  97
ENDBRANCH  83  94
ENDBRANCH  72  74
ENDBRANCH  66  70
ENDBRANCH  61  63
ENDBRANCH  56  59
ENDBRANCH   3  53
TORSDOF 22
ENDMDL
MODEL 3
REMARK VINA RESULT:   -10.759      2.987      8.519
REMARK INTER + INTRA:          20.024
REMARK INTER:                 -24.738
REMARK INTRA:                  44.762
REMARK UNBOUND:                42.733
REMARK SMILES Cc1ccc(C(=O)Nc2ccc(S(=O)(=O)O)c3cc(S(=O)(=O)O)cc(S(=O)(=O)O)c23)cc1NC(=O)c1cccc(NC(=O)Nc2cccc(C(=O)Nc3cc(C(=O)Nc4ccc(S(=O)(=O)O)c5cc(S(=O)(=O)O)cc(S(=O)(=O)O)c45)ccc3C)c2)c1
REMARK SMILES IDX 43 1 41 2 44 3 42 4 40 7 36 8 86 9 37 10 38 11 39 12 34 13
REMARK SMILES IDX 33 14 35 16 32 17 5 18 31 19 4 20 3 21 2 22 1 23 6 24 8 25
REMARK SMILES IDX 7 27 9 28 25 29 30 30 24 31 17 32 19 33 12 34 18 35 10 36
REMARK SMILES IDX 11 37 26 38 27 39 28 40 29 41 20 43 21 44 22 45 23 46 13 48
REMARK SMILES IDX 14 49 15 50 16 51 45 53 85 54 46 55 49 56 47 57 48 58 50 59
REMARK SMILES IDX 51 60 52 61 53 63 54 64 83 65 55 66 82 67 84 68 81 69 56 70
REMARK SMILES IDX 57 71 58 72 59 74 80 75 60 76 67 77 75 78 61 79 62 80 68 81
REMARK SMILES IDX 74 82 69 83 76 84 77 85 78 86 79 87 63 89 64 90 65 91 66 92
REMARK SMILES IDX 70 94 71 95 72 96 73 97
REMARK H PARENT 41 5 44 6 33 15 8 26 29 42 23 47 16 52 52 62 58 73 79 88 66 93
REMARK H PARENT 73 98
REMARK Flexibility Score: inf
ROOT
ATOM      1  O   UNL     1      35.801  -6.772  32.048  1.00  0.00    -0.248 OA
ATOM      2  N   UNL     1      36.677  -6.277  30.638  1.00  0.00    -0.308 N 
ATOM      3  N   UNL     1      37.350  -7.467  31.703  1.00  0.00    -0.308 N 
ATOM      4  C   UNL     1      36.609  -6.838  31.463  1.00  0.00     0.323 C 
ATOM      5  H   UNL     1      37.179  -6.319  30.275  1.00  0.00     0.171 HD
ATOM      6  H   UNL     1      37.851  -7.508  31.340  1.00  0.00     0.171 HD
ENDROOT
BRANCH   2   7
ATOM      7  C   UNL     1      35.938  -5.649  30.398  1.00  0.00     0.043 A 
ATOM      8  C   UNL     1      34.674  -4.565  30.877  1.00  0.00     0.042 A 
ATOM      9  C   UNL     1      35.414  -5.193  31.118  1.00  0.00     0.040 A 
ATOM     10  C   UNL     1      34.457  -4.393  29.917  1.00  0.00     0.014 A 
ATOM     11  C   UNL     1      34.981  -4.848  29.197  1.00  0.00     0.003 A 
ATOM     12  C   UNL     1      35.721  -5.477  29.437  1.00  0.00     0.026 A 
BRANCH   8  13
ATOM     13  C   UNL     1      34.151  -4.110  31.597  1.00  0.00     0.255 C 
ATOM     14  N   UNL     1      33.581  -4.648  32.218  1.00  0.00    -0.322 N 
ATOM     15  H   UNL     1      33.551  -5.265  32.156  1.00  0.00     0.170 HD
ATOM     16  O   UNL     1      34.199  -3.116  31.697  1.00  0.00    -0.269 OA
BRANCH  14  17
ATOM     17  C   UNL     1      33.058  -4.192  32.938  1.00  0.00     0.045 A 
ATOM     18  C   UNL     1      31.995  -2.923  33.446  1.00  0.00     0.042 A 
ATOM     19  C   UNL     1      32.518  -3.379  32.726  1.00  0.00     0.040 A 
ATOM     20  C   UNL     1      32.013  -3.281  34.379  1.00  0.00     0.014 A 
ATOM     21  C   UNL     1      32.554  -4.095  34.593  1.00  0.00     0.006 A 
ATOM     22  C   UNL     1      33.077  -4.551  33.872  1.00  0.00    -0.027 A 
ATOM     23  C   UNL     1      33.618  -5.364  34.085  1.00  0.00     0.046 C 
BRANCH  18  24
ATOM     24  C   UNL     1      31.454  -2.109  33.233  1.00  0.00     0.255 C 
ATOM     25  N   UNL     1      31.131  -1.517  33.971  1.00  0.00    -0.321 N 
ATOM     26  H   UNL     1      31.266  -1.653  34.560  1.00  0.00     0.170 HD
ATOM     27  O   UNL     1      31.236  -1.888  32.282  1.00  0.00    -0.269 OA
BRANCH  25  28
ATOM     28  C   UNL     1      30.590  -0.703  33.758  1.00  0.00     0.050 A 
ATOM     29  C   UNL     1      28.832  -0.785  33.722  1.00  0.00     0.105 A 
ATOM     30  C   UNL     1      29.666  -0.242  33.618  1.00  0.00     0.028 A 
ATOM     31  C   UNL     1      27.938  -0.355  33.590  1.00  0.00     0.046 A 
ATOM     32  C   UNL     1      29.606   0.728  33.382  1.00  0.00     0.008 A 
ATOM     33  C   UNL     1      27.878   0.615  33.354  1.00  0.00     0.096 A 
ATOM     34  C   UNL     1      30.466   1.304  33.271  1.00  0.00     0.102 A 
ATOM     35  C   UNL     1      28.713   1.155  33.251  1.00  0.00     0.033 A 
ATOM     36  C   UNL     1      31.463  -0.145  33.652  1.00  0.00     0.028 A 
ATOM     37  C   UNL     1      31.401   0.865  33.407  1.00  0.00     0.025 A 
BRANCH  29  38
ATOM     38  S   UNL     1      28.385  -1.658  33.917  1.00  0.00     0.295 S 
ATOM     39  O   UNL     1      28.287  -1.827  32.936  1.00  0.00    -0.194 OA
ATOM     40  O   UNL     1      28.483  -1.488  34.898  1.00  0.00    -0.194 OA
BRANCH  38  41
ATOM     41  O   UNL     1      27.938  -2.530  34.113  1.00  0.00    -0.282 OA
ATOM     42  H   UNL     1      27.368  -2.539  34.356  1.00  0.00     0.234 HD
ENDBRANCH  38  41
ENDBRANCH  29  38
BRANCH  33  43
ATOM     43  S   UNL     1      26.985   1.042  33.223  1.00  0.00     0.294 S 
ATOM     44  O   UNL     1      26.975   1.320  34.184  1.00  0.00    -0.194 OA
ATOM     45  O   UNL     1      26.994   0.764  32.263  1.00  0.00    -0.194 OA
BRANCH  43  46
ATOM     46  O   UNL     1      26.090   1.469  33.091  1.00  0.00    -0.282 OA
ATOM     47  H   UNL     1      25.872   1.563  32.518  1.00  0.00     0.234 HD
ENDBRANCH  43  46
ENDBRANCH  33  43
BRANCH  34  48
ATOM     48  S   UNL     1      30.395   2.274  33.035  1.00  0.00     0.295 S 
ATOM     49  O   UNL     1      30.328   2.505  34.006  1.00  0.00    -0.194 OA
ATOM     50  O   UNL     1      30.461   2.044  32.064  1.00  0.00    -0.194 OA
BRANCH  48  51
ATOM     51  O   UNL     1      30.323   3.243  32.801  1.00  0.00    -0.282 OA
ATOM     52  H   UNL     1      30.585   3.671  33.165  1.00  0.00     0.234 HD
ENDBRANCH  48  51
ENDBRANCH  34  48
ENDBRANCH  25  28
ENDBRANCH  18  24
ENDBRANCH  14  17
ENDBRANCH   8  13
ENDBRANCH   2   7
BRANCH   3  53
ATOM     53  C   UNL     1      37.281  -8.028  32.528  1.00  0.00     0.043 A 
ATOM     54  C   UNL     1      37.111  -7.597  33.414  1.00  0.00     0.040 A 
ATOM     55  C   UNL     1      37.383  -9.021  32.466  1.00  0.00     0.026 A 
ATOM     56  C   UNL     1      37.043  -8.158  34.238  1.00  0.00     0.042 A 
ATOM     57  C   UNL     1      37.315  -9.583  33.291  1.00  0.00     0.003 A 
ATOM     58  C   UNL     1      37.145  -9.152  34.177  1.00  0.00     0.014 A 
BRANCH  56  59
ATOM     59  C   UNL     1      36.873  -7.727  35.124  1.00  0.00     0.255 C 
ATOM     60  O   UNL     1      36.000  -7.873  35.592  1.00  0.00    -0.269 OA
ATOM     61  N   UNL     1      37.574  -7.150  35.543  1.00  0.00    -0.322 N 
ATOM     62  H   UNL     1      38.115  -7.060  35.253  1.00  0.00     0.170 HD
BRANCH  61  63
ATOM     63  C   UNL     1      37.404  -6.719  36.429  1.00  0.00     0.045 A 
ATOM     64  C   UNL     1      36.707  -6.007  36.513  1.00  0.00     0.040 A 
ATOM     65  C   UNL     1      37.930  -7.000  37.231  1.00  0.00    -0.027 A 
ATOM     66  C   UNL     1      36.536  -5.576  37.399  1.00  0.00     0.042 A 
ATOM     67  C   UNL     1      37.760  -6.569  38.117  1.00  0.00     0.006 A 
ATOM     68  C   UNL     1      38.627  -7.713  37.147  1.00  0.00     0.046 C 
ATOM     69  C   UNL     1      37.063  -5.857  38.201  1.00  0.00     0.014 A 
BRANCH  66  70
ATOM     70  C   UNL     1      35.839  -4.863  37.482  1.00  0.00     0.255 C 
ATOM     71  O   UNL     1      35.013  -5.033  38.020  1.00  0.00    -0.269 OA
ATOM     72  N   UNL     1      35.969  -3.982  37.029  1.00  0.00    -0.321 N 
ATOM     73  H   UNL     1      36.515  -4.176  36.806  1.00  0.00     0.170 HD
BRANCH  72  74
ATOM     74  C   UNL     1      35.273  -3.269  37.111  1.00  0.00     0.050 A 
ATOM     75  C   UNL     1      35.259  -2.469  36.445  1.00  0.00     0.028 A 
ATOM     76  C   UNL     1      34.556  -3.322  37.865  1.00  0.00     0.028 A 
ATOM     77  C   UNL     1      34.567  -1.751  36.519  1.00  0.00     0.008 A 
ATOM     78  C   UNL     1      35.951  -2.425  35.724  1.00  0.00     0.105 A 
ATOM     79  C   UNL     1      33.835  -2.575  37.942  1.00  0.00     0.025 A 
ATOM     80  C   UNL     1      33.841  -1.783  37.265  1.00  0.00     0.102 A 
ATOM     81  C   UNL     1      34.567  -0.989  35.872  1.00  0.00     0.033 A 
ATOM     82  C   UNL     1      35.950  -1.662  35.077  1.00  0.00     0.046 A 
ATOM     83  C   UNL     1      35.258  -0.944  35.151  1.00  0.00     0.096 A 
BRANCH  78  84
ATOM     84  S   UNL     1      36.749  -2.814  35.265  1.00  0.00     0.295 S 
ATOM     85  O   UNL     1      37.548  -3.202  34.805  1.00  0.00    -0.194 OA
ATOM     86  O   UNL     1      37.349  -2.369  35.930  1.00  0.00    -0.194 OA
BRANCH  84  87
ATOM     87  O   UNL     1      36.150  -3.258  34.599  1.00  0.00    -0.282 OA
ATOM     88  H   UNL     1      35.569  -3.408  34.756  1.00  0.00     0.234 HD
ENDBRANCH  84  87
ENDBRANCH  78  84
BRANCH  80  89
ATOM     89  S   UNL     1      33.153  -1.060  37.330  1.00  0.00     0.295 S 
ATOM     90  O   UNL     1      32.532  -1.598  36.760  1.00  0.00    -0.194 OA
ATOM     91  O   UNL     1      33.774  -0.523  37.901  1.00  0.00    -0.194 OA
BRANCH  89  92
ATOM     92  O   UNL     1      32.466  -0.337  37.396  1.00  0.00    -0.282 OA
ATOM     93  H   UNL     1      32.482   0.063  37.870  1.00  0.00     0.234 HD
ENDBRANCH  89  92
ENDBRANCH  80  89
BRANCH  83  94
ATOM     94  S   UNL     1      35.257  -0.182  34.504  1.00  0.00     0.294 S 
ATOM     95  O   UNL     1      35.726   0.390  35.177  1.00  0.00    -0.194 OA
ATOM     96  O   UNL     1      34.788  -0.753  33.831  1.00  0.00    -0.194 OA
BRANCH  94  97
ATOM     97  O   UNL     1      35.256   0.581  33.857  1.00  0.00    -0.282 OA
ATOM     98  H   UNL     1      35.693   0.615  33.418  1.00  0.00     0.234 HD
ENDBRANCH  94  97
ENDBRANCH  83  94
ENDBRANCH  72  74
ENDBRANCH  66  70
ENDBRANCH  61  63
ENDBRANCH  56  59
ENDBRANCH   3  53
TORSDOF 22
ENDMDL
MODEL 4
REMARK VINA RESULT:   -10.739      2.671      6.094
REMARK INTER + INTRA:          20.065
REMARK INTER:                 -24.401
REMARK INTRA:                  44.466
REMARK UNBOUND:                42.733
REMARK SMILES Cc1ccc(C(=O)Nc2ccc(S(=O)(=O)O)c3cc(S(=O)(=O)O)cc(S(=O)(=O)O)c23)cc1NC(=O)c1cccc(NC(=O)Nc2cccc(C(=O)Nc3cc(C(=O)Nc4ccc(S(=O)(=O)O)c5cc(S(=O)(=O)O)cc(S(=O)(=O)O)c45)ccc3C)c2)c1
REMARK SMILES IDX 43 1 41 2 44 3 42 4 40 7 36 8 86 9 37 10 38 11 39 12 34 13
REMARK SMILES IDX 33 14 35 16 32 17 5 18 31 19 4 20 3 21 2 22 1 23 6 24 8 25
REMARK SMILES IDX 7 27 9 28 25 29 30 30 24 31 17 32 19 33 12 34 18 35 10 36
REMARK SMILES IDX 11 37 26 38 27 39 28 40 29 41 20 43 21 44 22 45 23 46 13 48
REMARK SMILES IDX 14 49 15 50 16 51 45 53 85 54 46 55 49 56 47 57 48 58 50 59
REMARK SMILES IDX 51 60 52 61 53 63 54 64 83 65 55 66 82 67 84 68 81 69 56 70
REMARK SMILES IDX 57 71 58 72 59 74 80 75 60 76 67 77 75 78 61 79 62 80 68 81
REMARK SMILES IDX 74 82 69 83 76 84 77 85 78 86 79 87 63 89 64 90 65 91 66 92
REMARK SMILES IDX 70 94 71 95 72 96 73 97
REMARK H PARENT 41 5 44 6 33 15 8 26 29 42 23 47 16 52 52 62 58 73 79 88 66 93
REMARK H PARENT 73 98
REMARK Flexibility Score: inf
ROOT
ATOM      1  O   UNL     1      33.281   2.531  31.914  1.00  0.00    -0.248 OA
ATOM      2  N   UNL     1      32.835   3.998  32.720  1.00  0.00    -0.308 N 
ATOM      3  N   UNL     1      34.424   3.340  32.933  1.00  0.00    -0.308 N 
ATOM      4  C   UNL     1      33.513   3.290  32.522  1.00  0.00     0.323 C 
ATOM      5  H   UNL     1      32.981   4.469  33.098  1.00  0.00     0.171 HD
ATOM      6  H   UNL     1      34.568   3.810  33.310  1.00  0.00     0.171 HD
ENDROOT
BRANCH   2   7
ATOM      7  C   UNL     1      31.925   3.948  32.310  1.00  0.00     0.043 A 
ATOM      8  C   UNL     1      30.368   3.197  32.199  1.00  0.00     0.042 A 
ATOM      9  C   UNL     1      31.279   3.246  32.610  1.00  0.00     0.040 A 
ATOM     10  C   UNL     1      30.104   3.849  31.489  1.00  0.00     0.014 A 
ATOM     11  C   UNL     1      30.750   4.550  31.189  1.00  0.00     0.003 A 
ATOM     12  C   UNL     1      31.661   4.600  31.600  1.00  0.00     0.026 A 
BRANCH   8  13
ATOM     13  C   UNL     1      29.723   2.495  32.499  1.00  0.00     0.255 C 
ATOM     14  N   UNL     1      29.043   2.135  31.861  1.00  0.00    -0.322 N 
ATOM     15  H   UNL     1      29.021   2.346  31.279  1.00  0.00     0.170 HD
ATOM     16  O   UNL     1      29.758   2.154  33.439  1.00  0.00    -0.269 OA
BRANCH  14  17
ATOM     17  C   UNL     1      28.398   1.433  32.163  1.00  0.00     0.045 A 
ATOM     18  C   UNL     1      28.088  -0.108  32.890  1.00  0.00     0.042 A 
ATOM     19  C   UNL     1      28.734   0.594  32.588  1.00  0.00     0.040 A 
ATOM     20  C   UNL     1      27.106   0.030  32.765  1.00  0.00     0.014 A 
ATOM     21  C   UNL     1      26.769   0.870  32.339  1.00  0.00     0.006 A 
ATOM     22  C   UNL     1      27.414   1.572  32.038  1.00  0.00    -0.027 A 
ATOM     23  C   UNL     1      27.078   2.411  31.612  1.00  0.00     0.046 C 
BRANCH  18  24
ATOM     24  C   UNL     1      28.425  -0.948  33.316  1.00  0.00     0.255 C 
ATOM     25  N   UNL     1      28.818  -0.919  34.235  1.00  0.00    -0.321 N 
ATOM     26  H   UNL     1      28.852  -0.381  34.541  1.00  0.00     0.170 HD
ATOM     27  O   UNL     1      28.370  -1.816  32.822  1.00  0.00    -0.269 OA
BRANCH  25  28
ATOM     28  C   UNL     1      29.155  -1.759  34.661  1.00  0.00     0.050 A 
ATOM     29  C   UNL     1      30.862  -2.179  34.577  1.00  0.00     0.105 A 
ATOM     30  C   UNL     1      29.939  -2.406  34.888  1.00  0.00     0.028 A 
ATOM     31  C   UNL     1      31.625  -2.791  34.788  1.00  0.00     0.046 A 
ATOM     32  C   UNL     1      29.779  -3.245  35.409  1.00  0.00     0.008 A 
ATOM     33  C   UNL     1      31.464  -3.630  35.309  1.00  0.00     0.096 A 
ATOM     34  C   UNL     1      28.823  -3.494  35.739  1.00  0.00     0.102 A 
ATOM     35  C   UNL     1      30.542  -3.855  35.619  1.00  0.00     0.033 A 
ATOM     36  C   UNL     1      28.191  -1.989  34.982  1.00  0.00     0.028 A 
ATOM     37  C   UNL     1      28.024  -2.861  35.524  1.00  0.00     0.025 A 
BRANCH  29  38
ATOM     38  S   UNL     1      31.488  -1.564  34.097  1.00  0.00     0.295 S 
ATOM     39  O   UNL     1      31.390  -2.114  33.267  1.00  0.00    -0.194 OA
ATOM     40  O   UNL     1      31.585  -1.015  34.927  1.00  0.00    -0.194 OA
BRANCH  38  41
ATOM     41  O   UNL     1      32.113  -0.949  33.616  1.00  0.00    -0.282 OA
ATOM     42  H   UNL     1      31.889  -0.483  33.275  1.00  0.00     0.234 HD
ENDBRANCH  38  41
ENDBRANCH  29  38
BRANCH  33  43
ATOM     43  S   UNL     1      32.227  -4.240  35.519  1.00  0.00     0.294 S 
ATOM     44  O   UNL     1      32.383  -3.752  36.377  1.00  0.00    -0.194 OA
ATOM     45  O   UNL     1      32.071  -4.729  34.660  1.00  0.00    -0.194 OA
BRANCH  43  46
ATOM     46  O   UNL     1      32.990  -4.852  35.728  1.00  0.00    -0.282 OA
ATOM     47  H   UNL     1      33.469  -4.647  36.064  1.00  0.00     0.234 HD
ENDBRANCH  43  46
ENDBRANCH  33  43
BRANCH  34  48
ATOM     48  S   UNL     1      28.674  -4.335  36.260  1.00  0.00     0.295 S 
ATOM     49  O   UNL     1      28.908  -3.853  37.105  1.00  0.00    -0.194 OA
ATOM     50  O   UNL     1      28.441  -4.817  35.415  1.00  0.00    -0.194 OA
BRANCH  48  51
ATOM     51  O   UNL     1      28.526  -5.175  36.781  1.00  0.00    -0.282 OA
ATOM     52  H   UNL     1      28.996  -5.436  37.089  1.00  0.00     0.234 HD
ENDBRANCH  48  51
ENDBRANCH  34  48
ENDBRANCH  25  28
ENDBRANCH  18  24
ENDBRANCH  14  17
ENDBRANCH   8  13
ENDBRANCH   2   7
BRANCH   3  53
ATOM     53  C   UNL     1      35.101   2.632  32.734  1.00  0.00     0.043 A 
ATOM     54  C   UNL     1      35.195   1.844  33.343  1.00  0.00     0.040 A 
ATOM     55  C   UNL     1      35.685   2.711  31.926  1.00  0.00     0.026 A 
ATOM     56  C   UNL     1      35.872   1.136  33.144  1.00  0.00     0.042 A 
ATOM     57  C   UNL     1      36.363   2.003  31.727  1.00  0.00     0.003 A 
ATOM     58  C   UNL     1      36.456   1.215  32.336  1.00  0.00     0.014 A 
BRANCH  56  59
ATOM     59  C   UNL     1      35.966   0.349  33.753  1.00  0.00     0.255 C 
ATOM     60  O   UNL     1      36.865  -0.063  33.904  1.00  0.00    -0.269 OA
ATOM     61  N   UNL     1      35.161  -0.028  34.212  1.00  0.00    -0.322 N 
ATOM     62  H   UNL     1      34.603   0.227  34.118  1.00  0.00     0.170 HD
BRANCH  61  63
ATOM     63  C   UNL     1      35.254  -0.815  34.821  1.00  0.00     0.045 A 
ATOM     64  C   UNL     1      35.619  -1.678  34.471  1.00  0.00     0.040 A 
ATOM     65  C   UNL     1      34.983  -0.741  35.780  1.00  0.00    -0.027 A 
ATOM     66  C   UNL     1      35.713  -2.466  35.080  1.00  0.00     0.042 A 
ATOM     67  C   UNL     1      35.076  -1.528  36.389  1.00  0.00     0.006 A 
ATOM     68  C   UNL     1      34.618   0.122  36.130  1.00  0.00     0.046 C 
ATOM     69  C   UNL     1      35.441  -2.390  36.038  1.00  0.00     0.014 A 
BRANCH  66  70
ATOM     70  C   UNL     1      36.078  -3.328  34.729  1.00  0.00     0.255 C 
ATOM     71  O   UNL     1      36.967  -3.660  35.045  1.00  0.00    -0.269 OA
ATOM     72  N   UNL     1      35.554  -3.858  34.062  1.00  0.00    -0.321 N 
ATOM     73  H   UNL     1      35.105  -3.430  34.075  1.00  0.00     0.170 HD
BRANCH  72  74
ATOM     74  C   UNL     1      35.919  -4.721  33.711  1.00  0.00     0.050 A 
ATOM     75  C   UNL     1      35.642  -5.060  32.766  1.00  0.00     0.028 A 
ATOM     76  C   UNL     1      36.577  -5.285  34.288  1.00  0.00     0.028 A 
ATOM     77  C   UNL     1      36.001  -5.921  32.406  1.00  0.00     0.008 A 
ATOM     78  C   UNL     1      35.010  -4.514  32.218  1.00  0.00     0.105 A 
ATOM     79  C   UNL     1      36.951  -6.181  33.913  1.00  0.00     0.025 A 
ATOM     80  C   UNL     1      36.661  -6.502  32.965  1.00  0.00     0.102 A 
ATOM     81  C   UNL     1      35.727  -6.236  31.497  1.00  0.00     0.033 A 
ATOM     82  C   UNL     1      34.736  -4.828  31.309  1.00  0.00     0.046 A 
ATOM     83  C   UNL     1      35.094  -5.689  30.948  1.00  0.00     0.096 A 
BRANCH  78  84
ATOM     84  S   UNL     1      34.437  -3.701  32.109  1.00  0.00     0.295 S 
ATOM     85  O   UNL     1      33.865  -2.888  32.001  1.00  0.00    -0.194 OA
ATOM     86  O   UNL     1      35.203  -3.219  31.683  1.00  0.00    -0.194 OA
BRANCH  84  87
ATOM     87  O   UNL     1      33.672  -4.183  32.536  1.00  0.00    -0.282 OA
ATOM     88  H   UNL     1      33.548  -4.769  32.378  1.00  0.00     0.234 HD
ENDBRANCH  84  87
ENDBRANCH  78  84
BRANCH  80  89
ATOM     89  S   UNL     1      37.014  -7.362  32.595  1.00  0.00     0.295 S 
ATOM     90  O   UNL     1      37.703  -6.857  32.076  1.00  0.00    -0.194 OA
ATOM     91  O   UNL     1      36.324  -7.867  33.114  1.00  0.00    -0.194 OA
BRANCH  89  92
ATOM     92  O   UNL     1      37.366  -8.222  32.226  1.00  0.00    -0.282 OA
ATOM     93  H   UNL     1      37.975  -8.292  32.132  1.00  0.00     0.234 HD
ENDBRANCH  89  92
ENDBRANCH  80  89
BRANCH  83  94
ATOM     94  S   UNL     1      34.820  -6.003  30.039  1.00  0.00     0.294 S 
ATOM     95  O   UNL     1      34.006  -6.429  30.432  1.00  0.00    -0.194 OA
ATOM     96  O   UNL     1      35.635  -5.577  29.646  1.00  0.00    -0.194 OA
BRANCH  94  97
ATOM     97  O   UNL     1      34.546  -6.317  29.130  1.00  0.00    -0.282 OA
ATOM     98  H   UNL     1      34.907  -6.713  28.817  1.00  0.00     0.234 HD
ENDBRANCH  94  97
ENDBRANCH  83  94
ENDBRANCH  72  74
ENDBRANCH  66  70
ENDBRANCH  61  63
ENDBRANCH  56  59
ENDBRANCH   3  53
TORSDOF 22
ENDMDL
MODEL 5
REMARK VINA RESULT:   -10.566      1.909      5.680
REMARK INTER + INTRA:          20.432
REMARK INTER:                 -23.062
REMARK INTRA:                  43.495
REMARK UNBOUND:                42.733
REMARK SMILES Cc1ccc(C(=O)Nc2ccc(S(=O)(=O)O)c3cc(S(=O)(=O)O)cc(S(=O)(=O)O)c23)cc1NC(=O)c1cccc(NC(=O)Nc2cccc(C(=O)Nc3cc(C(=O)Nc4ccc(S(=O)(=O)O)c5cc(S(=O)(=O)O)cc(S(=O)(=O)O)c45)ccc3C)c2)c1
REMARK SMILES IDX 43 1 41 2 44 3 42 4 40 7 36 8 86 9 37 10 38 11 39 12 34 13
REMARK SMILES IDX 33 14 35 16 32 17 5 18 31 19 4 20 3 21 2 22 1 23 6 24 8 25
REMARK SMILES IDX 7 27 9 28 25 29 30 30 24 31 17 32 19 33 12 34 18 35 10 36
REMARK SMILES IDX 11 37 26 38 27 39 28 40 29 41 20 43 21 44 22 45 23 46 13 48
REMARK SMILES IDX 14 49 15 50 16 51 45 53 85 54 46 55 49 56 47 57 48 58 50 59
REMARK SMILES IDX 51 60 52 61 53 63 54 64 83 65 55 66 82 67 84 68 81 69 56 70
REMARK SMILES IDX 57 71 58 72 59 74 80 75 60 76 67 77 75 78 61 79 62 80 68 81
REMARK SMILES IDX 74 82 69 83 76 84 77 85 78 86 79 87 63 89 64 90 65 91 66 92
REMARK SMILES IDX 70 94 71 95 72 96 73 97
REMARK H PARENT 41 5 44 6 33 15 8 26 29 42 23 47 16 52 52 62 58 73 79 88 66 93
REMARK H PARENT 73 98
REMARK Flexibility Score: inf
ROOT
ATOM      1  O   UNL     1      33.623  -0.094  34.105  1.00  0.00    -0.248 OA
ATOM      2  N   UNL     1      32.818   0.959  35.220  1.00  0.00    -0.308 N 
ATOM      3  N   UNL     1      34.472   1.250  34.794  1.00  0.00    -0.308 N 
ATOM      4  C   UNL     1      33.638   0.705  34.706  1.00  0.00     0.323 C 
ATOM      5  H   UNL     1      32.827   1.454  35.593  1.00  0.00     0.171 HD
ATOM      6  H   UNL     1      34.481   1.745  35.166  1.00  0.00     0.171 HD
ENDROOT
BRANCH   2   7
ATOM      7  C   UNL     1      31.984   0.414  35.133  1.00  0.00     0.043 A 
ATOM      8  C   UNL     1      31.202  -1.129  35.041  1.00  0.00     0.042 A 
ATOM      9  C   UNL     1      32.036  -0.584  35.129  1.00  0.00     0.040 A 
ATOM     10  C   UNL     1      30.315  -0.674  34.958  1.00  0.00     0.014 A 
ATOM     11  C   UNL     1      30.263   0.325  34.962  1.00  0.00     0.003 A 
ATOM     12  C   UNL     1      31.098   0.869  35.049  1.00  0.00     0.026 A 
BRANCH   8  13
ATOM     13  C   UNL     1      31.255  -2.126  35.037  1.00  0.00     0.255 C 
ATOM     14  N   UNL     1      31.365  -2.625  35.897  1.00  0.00    -0.322 N 
ATOM     15  H   UNL     1      31.401  -2.316  36.433  1.00  0.00     0.170 HD
ATOM     16  O   UNL     1      31.197  -2.626  34.173  1.00  0.00    -0.269 OA
BRANCH  14  17
ATOM     17  C   UNL     1      31.418  -3.624  35.892  1.00  0.00     0.045 A 
ATOM     18  C   UNL     1      31.992  -5.092  35.175  1.00  0.00     0.042 A 
ATOM     19  C   UNL     1      31.939  -4.094  35.180  1.00  0.00     0.040 A 
ATOM     20  C   UNL     1      31.523  -5.621  35.883  1.00  0.00     0.014 A 
ATOM     21  C   UNL     1      31.002  -5.151  36.596  1.00  0.00     0.006 A 
ATOM     22  C   UNL     1      30.949  -4.152  36.601  1.00  0.00    -0.027 A 
ATOM     23  C   UNL     1      30.428  -3.682  37.312  1.00  0.00     0.046 C 
BRANCH  18  24
ATOM     24  C   UNL     1      32.513  -5.562  34.463  1.00  0.00     0.255 C 
ATOM     25  N   UNL     1      33.405  -5.209  34.181  1.00  0.00    -0.321 N 
ATOM     26  H   UNL     1      33.634  -4.698  34.447  1.00  0.00     0.170 HD
ATOM     27  O   UNL     1      32.142  -6.385  34.033  1.00  0.00    -0.269 OA
BRANCH  25  28
ATOM     28  C   UNL     1      33.926  -5.679  33.468  1.00  0.00     0.050 A 
ATOM     29  C   UNL     1      33.785  -5.181  31.785  1.00  0.00     0.105 A 
ATOM     30  C   UNL     1      34.191  -5.791  32.467  1.00  0.00     0.028 A 
ATOM     31  C   UNL     1      34.031  -5.278  30.820  1.00  0.00     0.046 A 
ATOM     32  C   UNL     1      34.841  -6.497  32.184  1.00  0.00     0.008 A 
ATOM     33  C   UNL     1      34.680  -5.984  30.537  1.00  0.00     0.096 A 
ATOM     34  C   UNL     1      35.271  -7.138  32.883  1.00  0.00     0.102 A 
ATOM     35  C   UNL     1      35.085  -6.592  31.219  1.00  0.00     0.033 A 
ATOM     36  C   UNL     1      34.344  -6.309  34.184  1.00  0.00     0.028 A 
ATOM     37  C   UNL     1      35.021  -7.044  33.890  1.00  0.00     0.025 A 
BRANCH  29  38
ATOM     38  S   UNL     1      33.176  -4.423  31.555  1.00  0.00     0.295 S 
ATOM     39  O   UNL     1      32.462  -5.075  31.298  1.00  0.00    -0.194 OA
ATOM     40  O   UNL     1      33.890  -3.771  31.813  1.00  0.00    -0.194 OA
BRANCH  38  41
ATOM     41  O   UNL     1      32.567  -3.664  31.325  1.00  0.00    -0.282 OA
ATOM     42  H   UNL     1      32.540  -3.166  31.693  1.00  0.00     0.234 HD
ENDBRANCH  38  41
ENDBRANCH  29  38
BRANCH  33  43
ATOM     43  S   UNL     1      34.925  -6.079  29.573  1.00  0.00     0.294 S 
ATOM     44  O   UNL     1      34.268  -6.828  29.480  1.00  0.00    -0.194 OA
ATOM     45  O   UNL     1      35.581  -5.331  29.666  1.00  0.00    -0.194 OA
BRANCH  43  46
ATOM     46  O   UNL     1      35.169  -6.174  28.608  1.00  0.00    -0.282 OA
ATOM     47  H   UNL     1      34.873  -5.841  28.178  1.00  0.00     0.234 HD
ENDBRANCH  43  46
ENDBRANCH  33  43
BRANCH  34  48
ATOM     48  S   UNL     1      35.920  -7.840  32.588  1.00  0.00     0.295 S 
ATOM     49  O   UNL     1      36.675  -7.198  32.723  1.00  0.00    -0.194 OA
ATOM     50  O   UNL     1      35.165  -8.482  32.454  1.00  0.00    -0.194 OA
BRANCH  48  51
ATOM     51  O   UNL     1      36.569  -8.541  32.294  1.00  0.00    -0.282 OA
ATOM     52  H   UNL     1      36.423  -8.924  31.829  1.00  0.00     0.234 HD
ENDBRANCH  48  51
ENDBRANCH  34  48
ENDBRANCH  25  28
ENDBRANCH  18  24
ENDBRANCH  14  17
ENDBRANCH   8  13
ENDBRANCH   2   7
BRANCH   3  53
ATOM     53  C   UNL     1      35.291   0.995  34.280  1.00  0.00     0.043 A 
ATOM     54  C   UNL     1      35.743   0.122  34.459  1.00  0.00     0.040 A 
ATOM     55  C   UNL     1      35.658   1.615  33.585  1.00  0.00     0.026 A 
ATOM     56  C   UNL     1      36.562  -0.132  33.945  1.00  0.00     0.042 A 
ATOM     57  C   UNL     1      36.477   1.361  33.071  1.00  0.00     0.003 A 
ATOM     58  C   UNL     1      36.929   0.487  33.251  1.00  0.00     0.014 A 
BRANCH  56  59
ATOM     59  C   UNL     1      37.015  -1.006  34.125  1.00  0.00     0.255 C 
ATOM     60  O   UNL     1      37.922  -1.022  34.546  1.00  0.00    -0.269 OA
ATOM     61  N   UNL     1      36.561  -1.863  33.883  1.00  0.00    -0.322 N 
ATOM     62  H   UNL     1      35.998  -1.853  33.622  1.00  0.00     0.170 HD
BRANCH  61  63
ATOM     63  C   UNL     1      37.013  -2.737  34.063  1.00  0.00     0.045 A 
ATOM     64  C   UNL     1      37.332  -2.955  34.986  1.00  0.00     0.040 A 
ATOM     65  C   UNL     1      37.147  -3.393  33.320  1.00  0.00    -0.027 A 
ATOM     66  C   UNL     1      37.784  -3.828  35.165  1.00  0.00     0.042 A 
ATOM     67  C   UNL     1      37.599  -4.266  33.500  1.00  0.00     0.006 A 
ATOM     68  C   UNL     1      36.828  -3.175  32.398  1.00  0.00     0.046 C 
ATOM     69  C   UNL     1      37.918  -4.484  34.423  1.00  0.00     0.014 A 
BRANCH  66  70
ATOM     70  C   UNL     1      38.102  -4.046  36.088  1.00  0.00     0.255 C 
ATOM     71  O   UNL     1      39.039  -3.823  36.360  1.00  0.00    -0.269 OA
ATOM     72  N   UNL     1      37.484  -4.486  36.739  1.00  0.00    -0.321 N 
ATOM     73  H   UNL     1      37.034  -4.488  36.311  1.00  0.00     0.170 HD
BRANCH  72  74
ATOM     74  C   UNL     1      37.802  -4.703  37.662  1.00  0.00     0.050 A 
ATOM     75  C   UNL     1      37.121  -4.778  38.447  1.00  0.00     0.028 A 
ATOM     76  C   UNL     1      38.816  -4.857  37.845  1.00  0.00     0.028 A 
ATOM     77  C   UNL     1      37.428  -4.995  39.373  1.00  0.00     0.008 A 
ATOM     78  C   UNL     1      36.149  -4.629  38.264  1.00  0.00     0.105 A 
ATOM     79  C   UNL     1      39.135  -5.083  38.810  1.00  0.00     0.025 A 
ATOM     80  C   UNL     1      38.437  -5.153  39.579  1.00  0.00     0.102 A 
ATOM     81  C   UNL     1      36.763  -5.063  40.117  1.00  0.00     0.033 A 
ATOM     82  C   UNL     1      35.484  -4.697  39.008  1.00  0.00     0.046 A 
ATOM     83  C   UNL     1      35.791  -4.914  39.935  1.00  0.00     0.096 A 
BRANCH  78  84
ATOM     84  S   UNL     1      35.411  -4.418  37.624  1.00  0.00     0.295 S 
ATOM     85  O   UNL     1      34.672  -4.206  36.983  1.00  0.00    -0.194 OA
ATOM     86  O   UNL     1      35.348  -5.385  37.377  1.00  0.00    -0.194 OA
BRANCH  84  87
ATOM     87  O   UNL     1      35.474  -3.450  37.870  1.00  0.00    -0.282 OA
ATOM     88  H   UNL     1      36.027  -3.171  37.892  1.00  0.00     0.234 HD
ENDBRANCH  84  87
ENDBRANCH  78  84
BRANCH  80  89
ATOM     89  S   UNL     1      38.734  -5.369  40.509  1.00  0.00     0.295 S 
ATOM     90  O   UNL     1      38.589  -6.343  40.330  1.00  0.00    -0.194 OA
ATOM     91  O   UNL     1      38.879  -4.396  40.689  1.00  0.00    -0.194 OA
BRANCH  89  92
ATOM     92  O   UNL     1      39.031  -5.585  41.440  1.00  0.00    -0.282 OA
ATOM     93  H   UNL     1      39.174  -6.169  41.591  1.00  0.00     0.234 HD
ENDBRANCH  89  92
ENDBRANCH  80  89
BRANCH  83  94
ATOM     94  S   UNL     1      35.127  -4.983  40.678  1.00  0.00     0.294 S 
ATOM     95  O   UNL     1      35.150  -3.989  40.790  1.00  0.00    -0.194 OA
ATOM     96  O   UNL     1      35.104  -5.976  40.567  1.00  0.00    -0.194 OA
BRANCH  94  97
ATOM     97  O   UNL     1      34.462  -5.051  41.422  1.00  0.00    -0.282 OA
ATOM     98  H   UNL     1      33.900  -4.797  41.360  1.00  0.00     0.234 HD
ENDBRANCH  94  97
ENDBRANCH  83  94
ENDBRANCH  72  74
ENDBRANCH  66  70
ENDBRANCH  61  63
ENDBRANCH  56  59
ENDBRANCH   3  53
TORSDOF 22
ENDMDL
MODEL 6
REMARK VINA RESULT:   -10.501      2.650      5.677
REMARK INTER + INTRA:          20.569
REMARK INTER:                 -25.513
REMARK INTRA:                  46.081
REMARK UNBOUND:                42.733
REMARK SMILES Cc1ccc(C(=O)Nc2ccc(S(=O)(=O)O)c3cc(S(=O)(=O)O)cc(S(=O)(=O)O)c23)cc1NC(=O)c1cccc(NC(=O)Nc2cccc(C(=O)Nc3cc(C(=O)Nc4ccc(S(=O)(=O)O)c5cc(S(=O)(=O)O)cc(S(=O)(=O)O)c45)ccc3C)c2)c1
REMARK SMILES IDX 43 1 41 2 44 3 42 4 40 7 36 8 86 9 37 10 38 11 39 12 34 13
REMARK SMILES IDX 33 14 35 16 32 17 5 18 31 19 4 20 3 21 2 22 1 23 6 24 8 25
REMARK SMILES IDX 7 27 9 28 25 29 30 30 24 31 17 32 19 33 12 34 18 35 10 36
REMARK SMILES IDX 11 37 26 38 27 39 28 40 29 41 20 43 21 44 22 45 23 46 13 48
REMARK SMILES IDX 14 49 15 50 16 51 45 53 85 54 46 55 49 56 47 57 48 58 50 59
REMARK SMILES IDX 51 60 52 61 53 63 54 64 83 65 55 66 82 67 84 68 81 69 56 70
REMARK SMILES IDX 57 71 58 72 59 74 80 75 60 76 67 77 75 78 61 79 62 80 68 81
REMARK SMILES IDX 74 82 69 83 76 84 77 85 78 86 79 87 63 89 64 90 65 91 66 92
REMARK SMILES IDX 70 94 71 95 72 96 73 97
REMARK H PARENT 41 5 44 6 33 15 8 26 29 42 23 47 16 52 52 62 58 73 79 88 66 93
REMARK H PARENT 73 98
REMARK Flexibility Score: inf
ROOT
ATOM      1  O   UNL     1      28.587  -1.256  33.877  1.00  0.00    -0.248 OA
ATOM      2  N   UNL     1      28.249  -1.255  35.576  1.00  0.00    -0.308 N 
ATOM      3  N   UNL     1      27.955   0.168  34.633  1.00  0.00    -0.308 N 
ATOM      4  C   UNL     1      28.264  -0.781  34.695  1.00  0.00     0.323 C 
ATOM      5  H   UNL     1      28.048  -0.960  36.083  1.00  0.00     0.171 HD
ATOM      6  H   UNL     1      27.754   0.463  35.141  1.00  0.00     0.171 HD
ENDROOT
BRANCH   2   7
ATOM      7  C   UNL     1      28.558  -2.204  35.638  1.00  0.00     0.043 A 
ATOM      8  C   UNL     1      29.844  -3.361  35.723  1.00  0.00     0.042 A 
ATOM      9  C   UNL     1      29.536  -2.412  35.660  1.00  0.00     0.040 A 
ATOM     10  C   UNL     1      29.174  -4.103  35.763  1.00  0.00     0.014 A 
ATOM     11  C   UNL     1      28.196  -3.895  35.741  1.00  0.00     0.003 A 
ATOM     12  C   UNL     1      27.888  -2.945  35.679  1.00  0.00     0.026 A 
BRANCH   8  13
ATOM     13  C   UNL     1      30.821  -3.568  35.745  1.00  0.00     0.255 C 
ATOM     14  N   UNL     1      31.208  -4.078  36.513  1.00  0.00    -0.322 N 
ATOM     15  H   UNL     1      30.842  -4.266  36.977  1.00  0.00     0.170 HD
ATOM     16  O   UNL     1      31.413  -3.266  34.997  1.00  0.00    -0.269 OA
BRANCH  14  17
ATOM     17  C   UNL     1      32.186  -4.285  36.534  1.00  0.00     0.045 A 
ATOM     18  C   UNL     1      33.640  -4.746  35.714  1.00  0.00     0.042 A 
ATOM     19  C   UNL     1      32.662  -4.539  35.693  1.00  0.00     0.040 A 
ATOM     20  C   UNL     1      34.142  -4.698  36.578  1.00  0.00     0.014 A 
ATOM     21  C   UNL     1      33.666  -4.443  37.420  1.00  0.00     0.006 A 
ATOM     22  C   UNL     1      32.688  -4.237  37.399  1.00  0.00    -0.027 A 
ATOM     23  C   UNL     1      32.212  -3.982  38.240  1.00  0.00     0.046 C 
BRANCH  18  24
ATOM     24  C   UNL     1      34.116  -5.000  34.872  1.00  0.00     0.255 C 
ATOM     25  N   UNL     1      33.651  -5.558  34.185  1.00  0.00    -0.321 N 
ATOM     26  H   UNL     1      33.068  -5.746  34.280  1.00  0.00     0.170 HD
ATOM     27  O   UNL     1      35.056  -4.697  34.718  1.00  0.00    -0.269 OA
BRANCH  25  28
ATOM     28  C   UNL     1      34.127  -5.812  33.343  1.00  0.00     0.050 A 
ATOM     29  C   UNL     1      34.001  -4.802  31.907  1.00  0.00     0.105 A 
ATOM     30  C   UNL     1      34.370  -5.621  32.348  1.00  0.00     0.028 A 
ATOM     31  C   UNL     1      34.226  -4.605  30.952  1.00  0.00     0.046 A 
ATOM     32  C   UNL     1      34.962  -6.242  31.835  1.00  0.00     0.008 A 
ATOM     33  C   UNL     1      34.819  -5.227  30.439  1.00  0.00     0.096 A 
ATOM     34  C   UNL     1      35.353  -7.098  32.282  1.00  0.00     0.102 A 
ATOM     35  C   UNL     1      35.186  -6.044  30.881  1.00  0.00     0.033 A 
ATOM     36  C   UNL     1      34.507  -6.663  33.809  1.00  0.00     0.028 A 
ATOM     37  C   UNL     1      35.124  -7.310  33.275  1.00  0.00     0.025 A 
BRANCH  29  38
ATOM     38  S   UNL     1      33.447  -3.971  31.948  1.00  0.00     0.295 S 
ATOM     39  O   UNL     1      32.624  -4.512  31.772  1.00  0.00    -0.194 OA
ATOM     40  O   UNL     1      34.270  -3.430  32.124  1.00  0.00    -0.194 OA
BRANCH  38  41
ATOM     41  O   UNL     1      32.892  -3.140  31.989  1.00  0.00    -0.282 OA
ATOM     42  H   UNL     1      32.383  -3.124  32.343  1.00  0.00     0.234 HD
ENDBRANCH  38  41
ENDBRANCH  29  38
BRANCH  33  43
ATOM     43  S   UNL     1      35.043  -5.029  29.485  1.00  0.00     0.294 S 
ATOM     44  O   UNL     1      34.155  -5.391  29.201  1.00  0.00    -0.194 OA
ATOM     45  O   UNL     1      35.930  -4.667  29.770  1.00  0.00    -0.194 OA
BRANCH  43  46
ATOM     46  O   UNL     1      35.267  -4.831  28.531  1.00  0.00    -0.282 OA
ATOM     47  H   UNL     1      35.596  -5.238  28.199  1.00  0.00     0.234 HD
ENDBRANCH  43  46
ENDBRANCH  33  43
BRANCH  34  48
ATOM     48  S   UNL     1      35.944  -7.712  31.759  1.00  0.00     0.295 S 
ATOM     49  O   UNL     1      35.143  -8.235  31.467  1.00  0.00    -0.194 OA
ATOM     50  O   UNL     1      36.746  -7.190  32.051  1.00  0.00    -0.194 OA
BRANCH  48  51
ATOM     51  O   UNL     1      36.535  -8.327  31.236  1.00  0.00    -0.282 OA
ATOM     52  H   UNL     1      36.316  -8.871  31.036  1.00  0.00     0.234 HD
ENDBRANCH  48  51
ENDBRANCH  34  48
ENDBRANCH  25  28
ENDBRANCH  18  24
ENDBRANCH  14  17
ENDBRANCH   8  13
ENDBRANCH   2   7
BRANCH   3  53
ATOM     53  C   UNL     1      27.970   0.642  33.753  1.00  0.00     0.043 A 
ATOM     54  C   UNL     1      28.801   1.107  33.449  1.00  0.00     0.040 A 
ATOM     55  C   UNL     1      27.153   0.650  33.176  1.00  0.00     0.026 A 
ATOM     56  C   UNL     1      28.815   1.580  32.568  1.00  0.00     0.042 A 
ATOM     57  C   UNL     1      27.166   1.124  32.295  1.00  0.00     0.003 A 
ATOM     58  C   UNL     1      27.998   1.589  31.991  1.00  0.00     0.014 A 
BRANCH  56  59
ATOM     59  C   UNL     1      29.646   2.045  32.263  1.00  0.00     0.255 C 
ATOM     60  O   UNL     1      30.353   1.536  31.773  1.00  0.00    -0.269 OA
ATOM     61  N   UNL     1      29.771   3.020  32.449  1.00  0.00    -0.322 N 
ATOM     62  H   UNL     1      29.332   3.336  32.753  1.00  0.00     0.170 HD
BRANCH  61  63
ATOM     63  C   UNL     1      30.602   3.485  32.145  1.00  0.00     0.045 A 
ATOM     64  C   UNL     1      31.494   3.055  32.279  1.00  0.00     0.040 A 
ATOM     65  C   UNL     1      30.541   4.382  31.705  1.00  0.00    -0.027 A 
ATOM     66  C   UNL     1      32.326   3.520  31.975  1.00  0.00     0.042 A 
ATOM     67  C   UNL     1      31.372   4.847  31.401  1.00  0.00     0.006 A 
ATOM     68  C   UNL     1      29.649   4.812  31.571  1.00  0.00     0.046 C 
ATOM     69  C   UNL     1      32.264   4.415  31.536  1.00  0.00     0.014 A 
BRANCH  66  70
ATOM     70  C   UNL     1      33.218   3.088  32.110  1.00  0.00     0.255 C 
ATOM     71  O   UNL     1      33.876   3.054  31.358  1.00  0.00    -0.269 OA
ATOM     72  N   UNL     1      33.451   2.691  32.997  1.00  0.00    -0.321 N 
ATOM     73  H   UNL     1      32.895   2.858  33.219  1.00  0.00     0.170 HD
BRANCH  72  74
ATOM     74  C   UNL     1      34.343   2.259  33.133  1.00  0.00     0.050 A 
ATOM     75  C   UNL     1      34.463   1.521  33.858  1.00  0.00     0.028 A 
ATOM     76  C   UNL     1      35.158   2.545  32.551  1.00  0.00     0.028 A 
ATOM     77  C   UNL     1      35.350   1.083  34.002  1.00  0.00     0.008 A 
ATOM     78  C   UNL     1      33.676   1.251  34.413  1.00  0.00     0.105 A 
ATOM     79  C   UNL     1      36.082   2.089  32.701  1.00  0.00     0.025 A 
ATOM     80  C   UNL     1      36.179   1.353  33.431  1.00  0.00     0.102 A 
ATOM     81  C   UNL     1      35.451   0.376  34.702  1.00  0.00     0.033 A 
ATOM     82  C   UNL     1      33.777   0.544  35.113  1.00  0.00     0.046 A 
ATOM     83  C   UNL     1      34.664   0.106  35.257  1.00  0.00     0.096 A 
BRANCH  78  84
ATOM     84  S   UNL     1      32.710   1.348  34.651  1.00  0.00     0.295 S 
ATOM     85  O   UNL     1      31.743   1.446  34.889  1.00  0.00    -0.194 OA
ATOM     86  O   UNL     1      32.940   2.084  35.288  1.00  0.00    -0.194 OA
BRANCH  84  87
ATOM     87  O   UNL     1      32.479   0.613  34.014  1.00  0.00    -0.282 OA
ATOM     88  H   UNL     1      32.015   0.687  33.609  1.00  0.00     0.234 HD
ENDBRANCH  84  87
ENDBRANCH  78  84
BRANCH  80  89
ATOM     89  S   UNL     1      37.062   0.909  33.583  1.00  0.00     0.295 S 
ATOM     90  O   UNL     1      36.878   0.282  32.826  1.00  0.00    -0.194 OA
ATOM     91  O   UNL     1      37.246   1.536  34.340  1.00  0.00    -0.194 OA
BRANCH  89  92
ATOM     92  O   UNL     1      37.945   0.466  33.736  1.00  0.00    -0.282 OA
ATOM     93  H   UNL     1      38.273   0.254  33.254  1.00  0.00     0.234 HD
ENDBRANCH  89  92
ENDBRANCH  80  89
BRANCH  83  94
ATOM     94  S   UNL     1      34.765  -0.602  35.956  1.00  0.00     0.294 S 
ATOM     95  O   UNL     1      35.101   0.084  36.602  1.00  0.00    -0.194 OA
ATOM     96  O   UNL     1      34.430  -1.288  35.311  1.00  0.00    -0.194 OA
BRANCH  94  97
ATOM     97  O   UNL     1      34.866  -1.309  36.656  1.00  0.00    -0.282 OA
ATOM     98  H   UNL     1      34.456  -1.347  37.119  1.00  0.00     0.234 HD
ENDBRANCH  94  97
ENDBRANCH  83  94
ENDBRANCH  72  74
ENDBRANCH  66  70
ENDBRANCH  61  63
ENDBRANCH  56  59
ENDBRANCH   3  53
TORSDOF 22
ENDMDL
MODEL 7
REMARK VINA RESULT:   -10.463      2.063      5.522
REMARK INTER + INTRA:          20.648
REMARK INTER:                 -21.815
REMARK INTRA:                  42.463
REMARK UNBOUND:                42.733
REMARK SMILES Cc1ccc(C(=O)Nc2ccc(S(=O)(=O)O)c3cc(S(=O)(=O)O)cc(S(=O)(=O)O)c23)cc1NC(=O)c1cccc(NC(=O)Nc2cccc(C(=O)Nc3cc(C(=O)Nc4ccc(S(=O)(=O)O)c5cc(S(=O)(=O)O)cc(S(=O)(=O)O)c45)ccc3C)c2)c1
REMARK SMILES IDX 43 1 41 2 44 3 42 4 40 7 36 8 86 9 37 10 38 11 39 12 34 13
REMARK SMILES IDX 33 14 35 16 32 17 5 18 31 19 4 20 3 21 2 22 1 23 6 24 8 25
REMARK SMILES IDX 7 27 9 28 25 29 30 30 24 31 17 32 19 33 12 34 18 35 10 36
REMARK SMILES IDX 11 37 26 38 27 39 28 40 29 41 20 43 21 44 22 45 23 46 13 48
REMARK SMILES IDX 14 49 15 50 16 51 45 53 85 54 46 55 49 56 47 57 48 58 50 59
REMARK SMILES IDX 51 60 52 61 53 63 54 64 83 65 55 66 82 67 84 68 81 69 56 70
REMARK SMILES IDX 57 71 58 72 59 74 80 75 60 76 67 77 75 78 61 79 62 80 68 81
REMARK SMILES IDX 74 82 69 83 76 84 77 85 78 86 79 87 63 89 64 90 65 91 66 92
REMARK SMILES IDX 70 94 71 95 72 96 73 97
REMARK H PARENT 41 5 44 6 33 15 8 26 29 42 23 47 16 52 52 62 58 73 79 88 66 93
REMARK H PARENT 73 98
REMARK Flexibility Score: inf
ROOT
ATOM      1  O   UNL     1      33.848  -0.365  34.230  1.00  0.00    -0.248 OA
ATOM      2  N   UNL     1      33.096   0.687  35.383  1.00  0.00    -0.308 N 
ATOM      3  N   UNL     1      34.769   0.894  34.983  1.00  0.00    -0.308 N 
ATOM      4  C   UNL     1      33.904   0.405  34.865  1.00  0.00     0.323 C 
ATOM      5  H   UNL     1      33.132   1.165  35.776  1.00  0.00     0.171 HD
ATOM      6  H   UNL     1      34.804   1.371  35.376  1.00  0.00     0.171 HD
ENDROOT
BRANCH   2   7
ATOM      7  C   UNL     1      32.232   0.199  35.265  1.00  0.00     0.043 A 
ATOM      8  C   UNL     1      31.342  -1.286  35.213  1.00  0.00     0.042 A 
ATOM      9  C   UNL     1      32.207  -0.798  35.330  1.00  0.00     0.040 A 
ATOM     10  C   UNL     1      30.501  -0.776  35.030  1.00  0.00     0.014 A 
ATOM     11  C   UNL     1      30.526   0.221  34.965  1.00  0.00     0.003 A 
ATOM     12  C   UNL     1      31.391   0.709  35.083  1.00  0.00     0.026 A 
BRANCH   8  13
ATOM     13  C   UNL     1      31.318  -2.283  35.278  1.00  0.00     0.255 C 
ATOM     14  N   UNL     1      31.603  -2.736  36.123  1.00  0.00    -0.322 N 
ATOM     15  H   UNL     1      31.795  -2.399  36.607  1.00  0.00     0.170 HD
ATOM     16  O   UNL     1      31.008  -2.827  34.498  1.00  0.00    -0.269 OA
BRANCH  14  17
ATOM     17  C   UNL     1      31.579  -3.734  36.187  1.00  0.00     0.045 A 
ATOM     18  C   UNL     1      32.032  -5.288  35.573  1.00  0.00     0.042 A 
ATOM     19  C   UNL     1      32.057  -4.291  35.509  1.00  0.00     0.040 A 
ATOM     20  C   UNL     1      31.530  -5.729  36.316  1.00  0.00     0.014 A 
ATOM     21  C   UNL     1      31.051  -5.172  36.995  1.00  0.00     0.006 A 
ATOM     22  C   UNL     1      31.075  -4.174  36.931  1.00  0.00    -0.027 A 
ATOM     23  C   UNL     1      30.597  -3.617  37.609  1.00  0.00     0.046 C 
BRANCH  18  24
ATOM     24  C   UNL     1      32.511  -5.845  34.894  1.00  0.00     0.255 C 
ATOM     25  N   UNL     1      33.467  -5.652  34.674  1.00  0.00    -0.321 N 
ATOM     26  H   UNL     1      33.763  -5.188  34.957  1.00  0.00     0.170 HD
ATOM     27  O   UNL     1      32.033  -6.595  34.436  1.00  0.00    -0.269 OA
BRANCH  25  28
ATOM     28  C   UNL     1      33.946  -6.209  33.994  1.00  0.00     0.050 A 
ATOM     29  C   UNL     1      34.971  -7.548  34.501  1.00  0.00     0.105 A 
ATOM     30  C   UNL     1      34.583  -7.000  33.760  1.00  0.00     0.028 A 
ATOM     31  C   UNL     1      35.584  -8.310  34.290  1.00  0.00     0.046 A 
ATOM     32  C   UNL     1      34.807  -7.214  32.809  1.00  0.00     0.008 A 
ATOM     33  C   UNL     1      35.808  -8.523  33.339  1.00  0.00     0.096 A 
ATOM     34  C   UNL     1      34.409  -6.652  32.027  1.00  0.00     0.102 A 
ATOM     35  C   UNL     1      35.419  -7.975  32.599  1.00  0.00     0.033 A 
ATOM     36  C   UNL     1      33.537  -5.634  33.228  1.00  0.00     0.028 A 
ATOM     37  C   UNL     1      33.770  -5.857  32.238  1.00  0.00     0.025 A 
BRANCH  29  38
ATOM     38  S   UNL     1      35.066  -7.740  35.478  1.00  0.00     0.295 S 
ATOM     39  O   UNL     1      35.796  -7.059  35.540  1.00  0.00    -0.194 OA
ATOM     40  O   UNL     1      34.337  -8.422  35.414  1.00  0.00    -0.194 OA
BRANCH  38  41
ATOM     41  O   UNL     1      35.161  -7.933  36.454  1.00  0.00    -0.282 OA
ATOM     42  H   UNL     1      34.703  -8.218  36.760  1.00  0.00     0.234 HD
ENDBRANCH  38  41
ENDBRANCH  29  38
BRANCH  33  43
ATOM     43  S   UNL     1      36.420  -9.285  33.130  1.00  0.00     0.294 S 
ATOM     44  O   UNL     1      35.632  -9.891  33.023  1.00  0.00    -0.194 OA
ATOM     45  O   UNL     1      37.209  -8.679  33.237  1.00  0.00    -0.194 OA
BRANCH  43  46
ATOM     46  O   UNL     1      37.034 -10.046  32.921  1.00  0.00    -0.282 OA
ATOM     47  H   UNL     1      37.609 -10.055  33.152  1.00  0.00     0.234 HD
ENDBRANCH  43  46
ENDBRANCH  33  43
BRANCH  34  48
ATOM     48  S   UNL     1      34.640  -6.875  31.080  1.00  0.00     0.295 S 
ATOM     49  O   UNL     1      33.826  -7.452  31.017  1.00  0.00    -0.194 OA
ATOM     50  O   UNL     1      35.454  -6.297  31.142  1.00  0.00    -0.194 OA
BRANCH  48  51
ATOM     51  O   UNL     1      34.870  -7.098  30.133  1.00  0.00    -0.282 OA
ATOM     52  H   UNL     1      35.349  -7.472  30.010  1.00  0.00     0.234 HD
ENDBRANCH  48  51
ENDBRANCH  34  48
ENDBRANCH  25  28
ENDBRANCH  18  24
ENDBRANCH  14  17
ENDBRANCH   8  13
ENDBRANCH   2   7
BRANCH   3  53
ATOM     53  C   UNL     1      35.577   0.611  34.465  1.00  0.00     0.043 A 
ATOM     54  C   UNL     1      35.943  -0.313  34.574  1.00  0.00     0.040 A 
ATOM     55  C   UNL     1      36.018   1.253  33.838  1.00  0.00     0.026 A 
ATOM     56  C   UNL     1      36.751  -0.595  34.056  1.00  0.00     0.042 A 
ATOM     57  C   UNL     1      36.826   0.972  33.320  1.00  0.00     0.003 A 
ATOM     58  C   UNL     1      37.192   0.048  33.429  1.00  0.00     0.014 A 
BRANCH  56  59
ATOM     59  C   UNL     1      37.117  -1.519  34.164  1.00  0.00     0.255 C 
ATOM     60  O   UNL     1      37.944  -1.668  34.706  1.00  0.00    -0.269 OA
ATOM     61  N   UNL     1      36.656  -2.294  33.732  1.00  0.00    -0.322 N 
ATOM     62  H   UNL     1      36.143  -2.201  33.396  1.00  0.00     0.170 HD
BRANCH  61  63
ATOM     63  C   UNL     1      37.022  -3.218  33.840  1.00  0.00     0.045 A 
ATOM     64  C   UNL     1      37.316  -3.537  34.741  1.00  0.00     0.040 A 
ATOM     65  C   UNL     1      37.095  -3.823  33.048  1.00  0.00    -0.027 A 
ATOM     66  C   UNL     1      37.682  -4.461  34.850  1.00  0.00     0.042 A 
ATOM     67  C   UNL     1      37.461  -4.747  33.156  1.00  0.00     0.006 A 
ATOM     68  C   UNL     1      36.802  -3.504  32.146  1.00  0.00     0.046 C 
ATOM     69  C   UNL     1      37.754  -5.066  34.058  1.00  0.00     0.014 A 
BRANCH  66  70
ATOM     70  C   UNL     1      37.975  -4.780  35.752  1.00  0.00     0.255 C 
ATOM     71  O   UNL     1      38.750  -5.407  35.833  1.00  0.00    -0.269 OA
ATOM     72  N   UNL     1      37.493  -4.471  36.572  1.00  0.00    -0.321 N 
ATOM     73  H   UNL     1      37.110  -4.132  36.219  1.00  0.00     0.170 HD
BRANCH  72  74
ATOM     74  C   UNL     1      37.785  -4.790  37.474  1.00  0.00     0.050 A 
ATOM     75  C   UNL     1      37.117  -4.788  38.272  1.00  0.00     0.028 A 
ATOM     76  C   UNL     1      38.761  -5.124  37.620  1.00  0.00     0.028 A 
ATOM     77  C   UNL     1      37.399  -5.104  39.178  1.00  0.00     0.008 A 
ATOM     78  C   UNL     1      36.182  -4.466  38.124  1.00  0.00     0.105 A 
ATOM     79  C   UNL     1      39.055  -5.453  38.563  1.00  0.00     0.025 A 
ATOM     80  C   UNL     1      38.369  -5.443  39.348  1.00  0.00     0.102 A 
ATOM     81  C   UNL     1      36.746  -5.098  39.935  1.00  0.00     0.033 A 
ATOM     82  C   UNL     1      35.529  -4.459  38.881  1.00  0.00     0.046 A 
ATOM     83  C   UNL     1      35.812  -4.775  39.787  1.00  0.00     0.096 A 
BRANCH  78  84
ATOM     84  S   UNL     1      35.479  -4.097  37.515  1.00  0.00     0.295 S 
ATOM     85  O   UNL     1      34.776  -3.728  36.907  1.00  0.00    -0.194 OA
ATOM     86  O   UNL     1      35.811  -3.171  37.693  1.00  0.00    -0.194 OA
BRANCH  84  87
ATOM     87  O   UNL     1      35.147  -5.023  37.338  1.00  0.00    -0.282 OA
ATOM     88  H   UNL     1      34.986  -5.190  36.762  1.00  0.00     0.234 HD
ENDBRANCH  84  87
ENDBRANCH  78  84
BRANCH  80  89
ATOM     89  S   UNL     1      38.642  -5.757  40.257  1.00  0.00     0.295 S 
ATOM     90  O   UNL     1      38.935  -4.830  40.490  1.00  0.00    -0.194 OA
ATOM     91  O   UNL     1      38.348  -6.684  40.024  1.00  0.00    -0.194 OA
BRANCH  89  92
ATOM     92  O   UNL     1      38.913  -6.072  41.167  1.00  0.00    -0.282 OA
ATOM     93  H   UNL     1      39.508  -6.209  41.282  1.00  0.00     0.234 HD
ENDBRANCH  89  92
ENDBRANCH  80  89
BRANCH  83  94
ATOM     94  S   UNL     1      35.159  -4.768  40.545  1.00  0.00     0.294 S 
ATOM     95  O   UNL     1      35.513  -3.882  40.842  1.00  0.00    -0.194 OA
ATOM     96  O   UNL     1      34.805  -5.655  40.248  1.00  0.00    -0.194 OA
BRANCH  94  97
ATOM     97  O   UNL     1      34.507  -4.761  41.303  1.00  0.00    -0.282 OA
ATOM     98  H   UNL     1      34.473  -5.247  41.687  1.00  0.00     0.234 HD
ENDBRANCH  94  97
ENDBRANCH  83  94
ENDBRANCH  72  74
ENDBRANCH  66  70
ENDBRANCH  61  63
ENDBRANCH  56  59
ENDBRANCH   3  53
TORSDOF 22
ENDMDL
MODEL 8
REMARK VINA RESULT:   -10.450      2.278      6.206
REMARK INTER + INTRA:          20.675
REMARK INTER:                 -22.388
REMARK INTRA:                  43.064
REMARK UNBOUND:                42.733
REMARK SMILES Cc1ccc(C(=O)Nc2ccc(S(=O)(=O)O)c3cc(S(=O)(=O)O)cc(S(=O)(=O)O)c23)cc1NC(=O)c1cccc(NC(=O)Nc2cccc(C(=O)Nc3cc(C(=O)Nc4ccc(S(=O)(=O)O)c5cc(S(=O)(=O)O)cc(S(=O)(=O)O)c45)ccc3C)c2)c1
REMARK SMILES IDX 43 1 41 2 44 3 42 4 40 7 36 8 86 9 37 10 38 11 39 12 34 13
REMARK SMILES IDX 33 14 35 16 32 17 5 18 31 19 4 20 3 21 2 22 1 23 6 24 8 25
REMARK SMILES IDX 7 27 9 28 25 29 30 30 24 31 17 32 19 33 12 34 18 35 10 36
REMARK SMILES IDX 11 37 26 38 27 39 28 40 29 41 20 43 21 44 22 45 23 46 13 48
REMARK SMILES IDX 14 49 15 50 16 51 45 53 85 54 46 55 49 56 47 57 48 58 50 59
REMARK SMILES IDX 51 60 52 61 53 63 54 64 83 65 55 66 82 67 84 68 81 69 56 70
REMARK SMILES IDX 57 71 58 72 59 74 80 75 60 76 67 77 75 78 61 79 62 80 68 81
REMARK SMILES IDX 74 82 69 83 76 84 77 85 78 86 79 87 63 89 64 90 65 91 66 92
REMARK SMILES IDX 70 94 71 95 72 96 73 97
REMARK H PARENT 41 5 44 6 33 15 8 26 29 42 23 47 16 52 52 62 58 73 79 88 66 93
REMARK H PARENT 73 98
REMARK Flexibility Score: inf
ROOT
ATOM      1  O   UNL     1      36.261  -6.090  39.215  1.00  0.00    -0.248 OA
ATOM      2  N   UNL     1      35.365  -5.739  40.655  1.00  0.00    -0.308 N 
ATOM      3  N   UNL     1      36.953  -5.081  40.441  1.00  0.00    -0.308 N 
ATOM      4  C   UNL     1      36.193  -5.637  40.104  1.00  0.00     0.323 C 
ATOM      5  H   UNL     1      35.323  -5.458  41.207  1.00  0.00     0.171 HD
ATOM      6  H   UNL     1      36.911  -4.800  40.992  1.00  0.00     0.171 HD
ENDROOT
BRANCH   2   7
ATOM      7  C   UNL     1      34.605  -6.294  40.318  1.00  0.00     0.043 A 
ATOM      8  C   UNL     1      33.410  -6.627  39.109  1.00  0.00     0.042 A 
ATOM      9  C   UNL     1      34.171  -6.072  39.445  1.00  0.00     0.040 A 
ATOM     10  C   UNL     1      33.084  -7.406  39.645  1.00  0.00     0.014 A 
ATOM     11  C   UNL     1      33.518  -7.628  40.518  1.00  0.00     0.003 A 
ATOM     12  C   UNL     1      34.279  -7.072  40.855  1.00  0.00     0.026 A 
BRANCH   8  13
ATOM     13  C   UNL     1      32.977  -6.405  38.236  1.00  0.00     0.255 C 
ATOM     14  N   UNL     1      32.836  -5.449  37.977  1.00  0.00    -0.322 N 
ATOM     15  H   UNL     1      33.018  -4.994  38.357  1.00  0.00     0.170 HD
ATOM     16  O   UNL     1      32.684  -7.138  37.622  1.00  0.00    -0.269 OA
BRANCH  14  17
ATOM     17  C   UNL     1      32.403  -5.227  37.104  1.00  0.00     0.045 A 
ATOM     18  C   UNL     1      32.367  -5.336  35.376  1.00  0.00     0.042 A 
ATOM     19  C   UNL     1      32.801  -5.558  36.249  1.00  0.00     0.040 A 
ATOM     20  C   UNL     1      31.535  -4.782  35.358  1.00  0.00     0.014 A 
ATOM     21  C   UNL     1      31.136  -4.451  36.213  1.00  0.00     0.006 A 
ATOM     22  C   UNL     1      31.570  -4.673  37.086  1.00  0.00    -0.027 A 
ATOM     23  C   UNL     1      31.171  -4.342  37.941  1.00  0.00     0.046 C 
BRANCH  18  24
ATOM     24  C   UNL     1      32.766  -5.667  34.520  1.00  0.00     0.255 C 
ATOM     25  N   UNL     1      33.718  -5.454  34.297  1.00  0.00    -0.321 N 
ATOM     26  H   UNL     1      34.060  -5.117  34.689  1.00  0.00     0.170 HD
ATOM     27  O   UNL     1      32.214  -6.211  33.889  1.00  0.00    -0.269 OA
BRANCH  25  28
ATOM     28  C   UNL     1      34.116  -5.785  33.442  1.00  0.00     0.050 A 
ATOM     29  C   UNL     1      34.157  -4.751  32.018  1.00  0.00     0.105 A 
ATOM     30  C   UNL     1      34.370  -5.632  32.443  1.00  0.00     0.028 A 
ATOM     31  C   UNL     1      34.394  -4.590  31.059  1.00  0.00     0.046 A 
ATOM     32  C   UNL     1      34.819  -6.349  31.911  1.00  0.00     0.008 A 
ATOM     33  C   UNL     1      34.844  -5.308  30.527  1.00  0.00     0.096 A 
ATOM     34  C   UNL     1      35.046  -7.270  32.341  1.00  0.00     0.102 A 
ATOM     35  C   UNL     1      35.056  -6.187  30.954  1.00  0.00     0.033 A 
ATOM     36  C   UNL     1      34.334  -6.699  33.892  1.00  0.00     0.028 A 
ATOM     37  C   UNL     1      34.802  -7.446  33.339  1.00  0.00     0.025 A 
BRANCH  29  38
ATOM     38  S   UNL     1      33.775  -3.829  32.079  1.00  0.00     0.295 S 
ATOM     39  O   UNL     1      34.648  -3.492  32.432  1.00  0.00    -0.194 OA
ATOM     40  O   UNL     1      32.902  -4.167  31.726  1.00  0.00    -0.194 OA
BRANCH  38  41
ATOM     41  O   UNL     1      33.393  -2.907  32.140  1.00  0.00    -0.282 OA
ATOM     42  H   UNL     1      33.603  -2.459  31.767  1.00  0.00     0.234 HD
ENDBRANCH  38  41
ENDBRANCH  29  38
BRANCH  33  43
ATOM     43  S   UNL     1      35.080  -5.146  29.570  1.00  0.00     0.294 S 
ATOM     44  O   UNL     1      35.995  -4.848  29.845  1.00  0.00    -0.194 OA
ATOM     45  O   UNL     1      34.166  -5.443  29.294  1.00  0.00    -0.194 OA
BRANCH  43  46
ATOM     46  O   UNL     1      35.316  -4.983  28.612  1.00  0.00    -0.282 OA
ATOM     47  H   UNL     1      35.078  -5.344  28.168  1.00  0.00     0.234 HD
ENDBRANCH  43  46
ENDBRANCH  33  43
BRANCH  34  48
ATOM     48  S   UNL     1      35.496  -7.980  31.800  1.00  0.00     0.295 S 
ATOM     49  O   UNL     1      34.603  -8.318  31.502  1.00  0.00    -0.194 OA
ATOM     50  O   UNL     1      36.389  -7.643  32.097  1.00  0.00    -0.194 OA
BRANCH  48  51
ATOM     51  O   UNL     1      35.944  -8.691  31.258  1.00  0.00    -0.282 OA
ATOM     52  H   UNL     1      35.960  -9.275  31.464  1.00  0.00     0.234 HD
ENDBRANCH  48  51
ENDBRANCH  34  48
ENDBRANCH  25  28
ENDBRANCH  18  24
ENDBRANCH  14  17
ENDBRANCH   8  13
ENDBRANCH   2   7
BRANCH   3  53
ATOM     53  C   UNL     1      37.781  -4.979  39.889  1.00  0.00     0.043 A 
ATOM     54  C   UNL     1      37.709  -4.809  38.907  1.00  0.00     0.040 A 
ATOM     55  C   UNL     1      38.681  -5.048  40.321  1.00  0.00     0.026 A 
ATOM     56  C   UNL     1      38.538  -4.707  38.356  1.00  0.00     0.042 A 
ATOM     57  C   UNL     1      39.509  -4.946  39.770  1.00  0.00     0.003 A 
ATOM     58  C   UNL     1      39.437  -4.776  38.787  1.00  0.00     0.014 A 
BRANCH  56  59
ATOM     59  C   UNL     1      38.466  -4.537  37.373  1.00  0.00     0.255 C 
ATOM     60  O   UNL     1      39.073  -3.874  36.935  1.00  0.00    -0.269 OA
ATOM     61  N   UNL     1      37.788  -5.030  36.828  1.00  0.00    -0.322 N 
ATOM     62  H   UNL     1      37.411  -5.441  37.100  1.00  0.00     0.170 HD
BRANCH  61  63
ATOM     63  C   UNL     1      37.716  -4.860  35.845  1.00  0.00     0.045 A 
ATOM     64  C   UNL     1      37.599  -3.926  35.506  1.00  0.00     0.040 A 
ATOM     65  C   UNL     1      37.762  -5.623  35.201  1.00  0.00    -0.027 A 
ATOM     66  C   UNL     1      37.528  -3.756  34.523  1.00  0.00     0.042 A 
ATOM     67  C   UNL     1      37.690  -5.453  34.218  1.00  0.00     0.006 A 
ATOM     68  C   UNL     1      37.879  -6.557  35.540  1.00  0.00     0.046 C 
ATOM     69  C   UNL     1      37.573  -4.520  33.880  1.00  0.00     0.014 A 
BRANCH  66  70
ATOM     70  C   UNL     1      37.411  -2.822  34.185  1.00  0.00     0.255 C 
ATOM     71  O   UNL     1      37.956  -2.498  33.411  1.00  0.00    -0.269 OA
ATOM     72  N   UNL     1      36.748  -2.213  34.620  1.00  0.00    -0.321 N 
ATOM     73  H   UNL     1      36.595  -2.663  35.018  1.00  0.00     0.170 HD
BRANCH  72  74
ATOM     74  C   UNL     1      36.631  -1.279  34.282  1.00  0.00     0.050 A 
ATOM     75  C   UNL     1      35.774  -0.738  34.524  1.00  0.00     0.028 A 
ATOM     76  C   UNL     1      37.365  -0.841  33.686  1.00  0.00     0.028 A 
ATOM     77  C   UNL     1      35.647   0.196  34.191  1.00  0.00     0.008 A 
ATOM     78  C   UNL     1      35.074  -1.165  35.096  1.00  0.00     0.105 A 
ATOM     79  C   UNL     1      37.232   0.132  33.340  1.00  0.00     0.025 A 
ATOM     80  C   UNL     1      36.367   0.655  33.594  1.00  0.00     0.102 A 
ATOM     81  C   UNL     1      34.819   0.704  34.431  1.00  0.00     0.033 A 
ATOM     82  C   UNL     1      34.246  -0.657  35.335  1.00  0.00     0.046 A 
ATOM     83  C   UNL     1      34.119   0.277  35.003  1.00  0.00     0.096 A 
BRANCH  78  84
ATOM     84  S   UNL     1      34.743  -1.951  35.618  1.00  0.00     0.295 S 
ATOM     85  O   UNL     1      34.413  -2.737  36.140  1.00  0.00    -0.194 OA
ATOM     86  O   UNL     1      35.243  -1.627  36.421  1.00  0.00    -0.194 OA
BRANCH  84  87
ATOM     87  O   UNL     1      34.243  -2.274  34.815  1.00  0.00    -0.282 OA
ATOM     88  H   UNL     1      34.467  -2.168  34.246  1.00  0.00     0.234 HD
ENDBRANCH  84  87
ENDBRANCH  78  84
BRANCH  80  89
ATOM     89  S   UNL     1      36.230   1.590  33.267  1.00  0.00     0.295 S 
ATOM     90  O   UNL     1      36.638   1.945  34.108  1.00  0.00    -0.194 OA
ATOM     91  O   UNL     1      35.822   1.234  32.426  1.00  0.00    -0.194 OA
BRANCH  89  92
ATOM     92  O   UNL     1      36.093   2.524  32.939  1.00  0.00    -0.282 OA
ATOM     93  H   UNL     1      36.583   2.886  32.820  1.00  0.00     0.234 HD
ENDBRANCH  89  92
ENDBRANCH  80  89
BRANCH  83  94
ATOM     94  S   UNL     1      33.292   0.785  35.243  1.00  0.00     0.294 S 
ATOM     95  O   UNL     1      32.821   0.390  34.454  1.00  0.00    -0.194 OA
ATOM     96  O   UNL     1      33.762   1.179  36.032  1.00  0.00    -0.194 OA
BRANCH  94  97
ATOM     97  O   UNL     1      32.464   1.292  35.482  1.00  0.00    -0.282 OA
ATOM     98  H   UNL     1      32.055   1.445  35.042  1.00  0.00     0.234 HD
ENDBRANCH  94  97
ENDBRANCH  83  94
ENDBRANCH  72  74
ENDBRANCH  66  70
ENDBRANCH  61  63
ENDBRANCH  56  59
ENDBRANCH   3  53
TORSDOF 22
ENDMDL
MODEL 9
REMARK VINA RESULT:   -10.407      1.990      4.799
REMARK INTER + INTRA:          20.767
REMARK INTER:                 -24.161
REMARK INTRA:                  44.929
REMARK UNBOUND:                42.733
REMARK SMILES Cc1ccc(C(=O)Nc2ccc(S(=O)(=O)O)c3cc(S(=O)(=O)O)cc(S(=O)(=O)O)c23)cc1NC(=O)c1cccc(NC(=O)Nc2cccc(C(=O)Nc3cc(C(=O)Nc4ccc(S(=O)(=O)O)c5cc(S(=O)(=O)O)cc(S(=O)(=O)O)c45)ccc3C)c2)c1
REMARK SMILES IDX 43 1 41 2 44 3 42 4 40 7 36 8 86 9 37 10 38 11 39 12 34 13
REMARK SMILES IDX 33 14 35 16 32 17 5 18 31 19 4 20 3 21 2 22 1 23 6 24 8 25
REMARK SMILES IDX 7 27 9 28 25 29 30 30 24 31 17 32 19 33 12 34 18 35 10 36
REMARK SMILES IDX 11 37 26 38 27 39 28 40 29 41 20 43 21 44 22 45 23 46 13 48
REMARK SMILES IDX 14 49 15 50 16 51 45 53 85 54 46 55 49 56 47 57 48 58 50 59
REMARK SMILES IDX 51 60 52 61 53 63 54 64 83 65 55 66 82 67 84 68 81 69 56 70
REMARK SMILES IDX 57 71 58 72 59 74 80 75 60 76 67 77 75 78 61 79 62 80 68 81
REMARK SMILES IDX 74 82 69 83 76 84 77 85 78 86 79 87 63 89 64 90 65 91 66 92
REMARK SMILES IDX 70 94 71 95 72 96 73 97
REMARK H PARENT 41 5 44 6 33 15 8 26 29 42 23 47 16 52 52 62 58 73 79 88 66 93
REMARK H PARENT 73 98
REMARK Flexibility Score: inf
ROOT
ATOM      1  O   UNL     1      34.142  -0.361  33.984  1.00  0.00    -0.248 OA
ATOM      2  N   UNL     1      34.960   0.876  34.878  1.00  0.00    -0.308 N 
ATOM      3  N   UNL     1      33.234   0.752  34.953  1.00  0.00    -0.308 N 
ATOM      4  C   UNL     1      34.112   0.422  34.605  1.00  0.00     0.323 C 
ATOM      5  H   UNL     1      34.941   1.362  35.263  1.00  0.00     0.171 HD
ATOM      6  H   UNL     1      33.215   1.237  35.337  1.00  0.00     0.171 HD
ENDROOT
BRANCH   2   7
ATOM      7  C   UNL     1      35.838   0.547  34.531  1.00  0.00     0.043 A 
ATOM      8  C   UNL     1      36.980  -0.737  34.315  1.00  0.00     0.042 A 
ATOM      9  C   UNL     1      36.102  -0.409  34.663  1.00  0.00     0.040 A 
ATOM     10  C   UNL     1      37.595  -0.111  33.836  1.00  0.00     0.014 A 
ATOM     11  C   UNL     1      37.331   0.845  33.705  1.00  0.00     0.003 A 
ATOM     12  C   UNL     1      36.452   1.174  34.052  1.00  0.00     0.026 A 
BRANCH   8  13
ATOM     13  C   UNL     1      37.243  -1.692  34.447  1.00  0.00     0.255 C 
ATOM     14  N   UNL     1      36.765  -2.416  33.950  1.00  0.00    -0.322 N 
ATOM     15  H   UNL     1      36.305  -2.274  33.560  1.00  0.00     0.170 HD
ATOM     16  O   UNL     1      37.985  -1.924  35.077  1.00  0.00    -0.269 OA
BRANCH  14  17
ATOM     17  C   UNL     1      37.029  -3.372  34.083  1.00  0.00     0.045 A 
ATOM     18  C   UNL     1      37.300  -4.721  35.134  1.00  0.00     0.042 A 
ATOM     19  C   UNL     1      37.036  -3.766  35.001  1.00  0.00     0.040 A 
ATOM     20  C   UNL     1      37.557  -5.283  34.348  1.00  0.00     0.014 A 
ATOM     21  C   UNL     1      37.550  -4.889  33.428  1.00  0.00     0.006 A 
ATOM     22  C   UNL     1      37.286  -3.933  33.296  1.00  0.00    -0.027 A 
ATOM     23  C   UNL     1      37.279  -3.539  32.377  1.00  0.00     0.046 C 
BRANCH  18  24
ATOM     24  C   UNL     1      37.307  -5.116  36.053  1.00  0.00     0.255 C 
ATOM     25  N   UNL     1      37.427  -4.523  36.850  1.00  0.00    -0.321 N 
ATOM     26  H   UNL     1      37.497  -3.912  36.774  1.00  0.00     0.170 HD
ATOM     27  O   UNL     1      37.194  -6.102  36.175  1.00  0.00    -0.269 OA
BRANCH  25  28
ATOM     28  C   UNL     1      37.434  -4.917  37.769  1.00  0.00     0.050 A 
ATOM     29  C   UNL     1      35.947  -5.027  38.704  1.00  0.00     0.105 A 
ATOM     30  C   UNL     1      36.931  -5.191  38.640  1.00  0.00     0.028 A 
ATOM     31  C   UNL     1      35.451  -5.285  39.534  1.00  0.00     0.046 A 
ATOM     32  C   UNL     1      37.420  -5.613  39.404  1.00  0.00     0.008 A 
ATOM     33  C   UNL     1      35.939  -5.707  40.298  1.00  0.00     0.096 A 
ATOM     34  C   UNL     1      38.445  -5.789  39.350  1.00  0.00     0.102 A 
ATOM     35  C   UNL     1      36.923  -5.870  40.232  1.00  0.00     0.033 A 
ATOM     36  C   UNL     1      38.460  -5.085  37.694  1.00  0.00     0.028 A 
ATOM     37  C   UNL     1      38.968  -5.524  38.490  1.00  0.00     0.025 A 
BRANCH  29  38
ATOM     38  S   UNL     1      35.096  -4.689  38.300  1.00  0.00     0.295 S 
ATOM     39  O   UNL     1      35.335  -3.758  38.578  1.00  0.00    -0.194 OA
ATOM     40  O   UNL     1      34.858  -5.620  38.023  1.00  0.00    -0.194 OA
BRANCH  38  41
ATOM     41  O   UNL     1      34.246  -4.351  37.897  1.00  0.00    -0.282 OA
ATOM     42  H   UNL     1      33.746  -4.718  37.875  1.00  0.00     0.234 HD
ENDBRANCH  38  41
ENDBRANCH  29  38
BRANCH  33  43
ATOM     43  S   UNL     1      35.443  -5.964  41.126  1.00  0.00     0.294 S 
ATOM     44  O   UNL     1      35.347  -6.898  40.780  1.00  0.00    -0.194 OA
ATOM     45  O   UNL     1      35.539  -5.031  41.473  1.00  0.00    -0.194 OA
BRANCH  43  46
ATOM     46  O   UNL     1      34.946  -6.221  41.955  1.00  0.00    -0.282 OA
ATOM     47  H   UNL     1      35.249  -6.280  42.493  1.00  0.00     0.234 HD
ENDBRANCH  43  46
ENDBRANCH  33  43
BRANCH  34  48
ATOM     48  S   UNL     1      38.923  -6.212  40.120  1.00  0.00     0.295 S 
ATOM     49  O   UNL     1      38.765  -7.116  39.723  1.00  0.00    -0.194 OA
ATOM     50  O   UNL     1      39.081  -5.308  40.519  1.00  0.00    -0.194 OA
BRANCH  48  51
ATOM     51  O   UNL     1      39.401  -6.635  40.890  1.00  0.00    -0.282 OA
ATOM     52  H   UNL     1      39.201  -6.540  41.469  1.00  0.00     0.234 HD
ENDBRANCH  48  51
ENDBRANCH  34  48
ENDBRANCH  25  28
ENDBRANCH  18  24
ENDBRANCH  14  17
ENDBRANCH   8  13
ENDBRANCH   2   7
BRANCH   3  53
ATOM     53  C   UNL     1      32.386   0.298  34.679  1.00  0.00     0.043 A 
ATOM     54  C   UNL     1      32.312  -0.698  34.731  1.00  0.00     0.040 A 
ATOM     55  C   UNL     1      31.611   0.840  34.353  1.00  0.00     0.026 A 
ATOM     56  C   UNL     1      31.464  -1.152  34.457  1.00  0.00     0.042 A 
ATOM     57  C   UNL     1      30.763   0.386  34.079  1.00  0.00     0.003 A 
ATOM     58  C   UNL     1      30.690  -0.609  34.131  1.00  0.00     0.014 A 
BRANCH  56  59
ATOM     59  C   UNL     1      31.391  -2.147  34.509  1.00  0.00     0.255 C 
ATOM     60  O   UNL     1      30.983  -2.659  33.752  1.00  0.00    -0.269 OA
ATOM     61  N   UNL     1      31.725  -2.632  35.317  1.00  0.00    -0.322 N 
ATOM     62  H   UNL     1      31.978  -2.315  35.787  1.00  0.00     0.170 HD
BRANCH  61  63
ATOM     63  C   UNL     1      31.651  -3.628  35.369  1.00  0.00     0.045 A 
ATOM     64  C   UNL     1      32.337  -4.205  34.925  1.00  0.00     0.040 A 
ATOM     65  C   UNL     1      30.891  -4.048  35.866  1.00  0.00    -0.027 A 
ATOM     66  C   UNL     1      32.263  -5.201  34.977  1.00  0.00     0.042 A 
ATOM     67  C   UNL     1      30.818  -5.044  35.918  1.00  0.00     0.006 A 
ATOM     68  C   UNL     1      30.206  -3.472  36.311  1.00  0.00     0.046 C 
ATOM     69  C   UNL     1      31.504  -5.620  35.474  1.00  0.00     0.014 A 
BRANCH  66  70
ATOM     70  C   UNL     1      32.949  -5.776  34.532  1.00  0.00     0.255 C 
ATOM     71  O   UNL     1      33.447  -6.462  35.063  1.00  0.00    -0.269 OA
ATOM     72  N   UNL     1      33.137  -5.666  33.557  1.00  0.00    -0.321 N 
ATOM     73  H   UNL     1      32.713  -5.214  33.525  1.00  0.00     0.170 HD
BRANCH  72  74
ATOM     74  C   UNL     1      33.823  -6.242  33.111  1.00  0.00     0.050 A 
ATOM     75  C   UNL     1      34.125  -6.037  32.136  1.00  0.00     0.028 A 
ATOM     76  C   UNL     1      34.240  -7.049  33.620  1.00  0.00     0.028 A 
ATOM     77  C   UNL     1      34.810  -6.606  31.681  1.00  0.00     0.008 A 
ATOM     78  C   UNL     1      33.721  -5.260  31.653  1.00  0.00     0.105 A 
ATOM     79  C   UNL     1      34.953  -7.642  33.146  1.00  0.00     0.025 A 
ATOM     80  C   UNL     1      35.241  -7.419  32.170  1.00  0.00     0.102 A 
ATOM     81  C   UNL     1      35.091  -6.398  30.744  1.00  0.00     0.033 A 
ATOM     82  C   UNL     1      34.002  -5.052  30.716  1.00  0.00     0.046 A 
ATOM     83  C   UNL     1      34.687  -5.621  30.262  1.00  0.00     0.096 A 
BRANCH  78  84
ATOM     84  S   UNL     1      33.092  -4.483  31.637  1.00  0.00     0.295 S 
ATOM     85  O   UNL     1      32.463  -3.706  31.621  1.00  0.00    -0.194 OA
ATOM     86  O   UNL     1      32.364  -5.079  31.297  1.00  0.00    -0.194 OA
BRANCH  84  87
ATOM     87  O   UNL     1      33.819  -3.887  31.977  1.00  0.00    -0.282 OA
ATOM     88  H   UNL     1      33.708  -3.499  32.448  1.00  0.00     0.234 HD
ENDBRANCH  84  87
ENDBRANCH  78  84
BRANCH  80  89
ATOM     89  S   UNL     1      35.925  -7.982  31.706  1.00  0.00     0.295 S 
ATOM     90  O   UNL     1      36.647  -7.367  32.024  1.00  0.00    -0.194 OA
ATOM     91  O   UNL     1      35.203  -8.597  31.389  1.00  0.00    -0.194 OA
BRANCH  89  92
ATOM     92  O   UNL     1      36.609  -8.545  31.243  1.00  0.00    -0.282 OA
ATOM     93  H   UNL     1      37.210  -8.394  31.277  1.00  0.00     0.234 HD
ENDBRANCH  89  92
ENDBRANCH  80  89
BRANCH  83  94
ATOM     94  S   UNL     1      34.967  -5.413  29.325  1.00  0.00     0.294 S 
ATOM     95  O   UNL     1      35.654  -4.774  29.672  1.00  0.00    -0.194 OA
ATOM     96  O   UNL     1      34.281  -6.052  28.977  1.00  0.00    -0.194 OA
BRANCH  94  97
ATOM     97  O   UNL     1      35.248  -5.205  28.388  1.00  0.00    -0.282 OA
ATOM     98  H   UNL     1      35.706  -5.528  28.122  1.00  0.00     0.234 HD
ENDBRANCH  94  97
ENDBRANCH  83  94
ENDBRANCH  72  74
ENDBRANCH  66  70
ENDBRANCH  61  63
ENDBRANCH  56  59
ENDBRANCH   3  53
TORSDOF 22
ENDMDL
