MODEL 1
REMARK VINA RESULT:   -12.134      0.000      0.000
REMARK INTER + INTRA:          18.910
REMARK INTER:                 -25.612
REMARK INTRA:                  44.523
REMARK UNBOUND:                44.523
REMARK SMILES Cc1ccc(C(=O)Nc2ccc(S(=O)(=O)O)c3cc(S(=O)(=O)O)cc(S(=O)(=O)O)c23)cc1NC(=O)c1cccc(NC(=O)Nc2cccc(C(=O)Nc3cc(C(=O)Nc4ccc(S(=O)(=O)O)c5cc(S(=O)(=O)O)cc(S(=O)(=O)O)c45)ccc3C)c2)c1
REMARK SMILES IDX 43 1 41 2 44 3 42 4 40 7 36 8 86 9 37 10 38 11 39 12 34 13
REMARK SMILES IDX 33 14 35 16 32 17 5 18 31 19 4 20 3 21 2 22 1 23 6 24 8 25
REMARK SMILES IDX 7 27 9 28 25 29 30 30 24 31 17 32 19 33 12 34 18 35 10 36
REMARK SMILES IDX 11 37 26 38 27 39 28 40 29 41 20 43 21 44 22 45 23 46 13 48
REMARK SMILES IDX 14 49 15 50 16 51 45 53 85 54 46 55 49 56 47 57 48 58 50 59
REMARK SMILES IDX 51 60 52 61 53 63 54 64 83 65 55 66 82 67 84 68 81 69 56 70
REMARK SMILES IDX 57 71 58 72 59 74 80 75 60 76 67 77 75 78 61 79 62 80 68 81
REMARK SMILES IDX 74 82 69 83 76 84 77 85 78 86 79 87 63 89 64 90 65 91 66 92
REMARK SMILES IDX 70 94 71 95 72 96 73 97
REMARK H PARENT 41 5 44 6 33 15 8 26 29 42 23 47 16 52 52 62 58 73 79 88 66 93
REMARK H PARENT 73 98
REMARK Flexibility Score: inf
ROOT
ATOM      1  O   UNL     1      56.562  41.295 -32.419  1.00  0.00    -0.248 OA
ATOM      2  N   UNL     1      56.606  41.003 -34.126  1.00  0.00    -0.308 N 
ATOM      3  N   UNL     1      58.026  40.749 -33.166  1.00  0.00    -0.308 N 
ATOM      4  C   UNL     1      57.065  41.016 -33.237  1.00  0.00     0.323 C 
ATOM      5  H   UNL     1      56.919  40.829 -34.633  1.00  0.00     0.171 HD
ATOM      6  H   UNL     1      58.338  40.576 -33.673  1.00  0.00     0.171 HD
ENDROOT
BRANCH   2   7
ATOM      7  C   UNL     1      55.646  41.269 -34.197  1.00  0.00     0.043 A 
ATOM      8  C   UNL     1      54.025  41.220 -33.587  1.00  0.00     0.042 A 
ATOM      9  C   UNL     1      54.986  40.953 -33.515  1.00  0.00     0.040 A 
ATOM     10  C   UNL     1      53.723  41.803 -34.341  1.00  0.00     0.014 A 
ATOM     11  C   UNL     1      54.382  42.119 -35.023  1.00  0.00     0.003 A 
ATOM     12  C   UNL     1      55.344  41.852 -34.951  1.00  0.00     0.026 A 
BRANCH   8  13
ATOM     13  C   UNL     1      53.367  40.904 -32.905  1.00  0.00     0.255 C 
ATOM     14  N   UNL     1      53.317  41.352 -32.012  1.00  0.00    -0.322 N 
ATOM     15  H   UNL     1      53.694  41.826 -31.881  1.00  0.00     0.170 HD
ATOM     16  O   UNL     1      52.758  40.139 -33.115  1.00  0.00    -0.269 OA
BRANCH  14  17
ATOM     17  C   UNL     1      52.658  41.035 -31.330  1.00  0.00     0.045 A 
ATOM     18  C   UNL     1      51.933  39.745 -30.431  1.00  0.00     0.042 A 
ATOM     19  C   UNL     1      52.592  40.062 -31.113  1.00  0.00     0.040 A 
ATOM     20  C   UNL     1      51.340  40.402 -29.966  1.00  0.00     0.014 A 
ATOM     21  C   UNL     1      51.406  41.376 -30.182  1.00  0.00     0.006 A 
ATOM     22  C   UNL     1      52.065  41.693 -30.865  1.00  0.00    -0.027 A 
ATOM     23  C   UNL     1      52.131  42.666 -31.082  1.00  0.00     0.046 C 
BRANCH  18  24
ATOM     24  C   UNL     1      51.867  38.770 -30.214  1.00  0.00     0.255 C 
ATOM     25  N   UNL     1      52.681  38.266 -29.928  1.00  0.00    -0.321 N 
ATOM     26  H   UNL     1      53.227  38.557 -29.885  1.00  0.00     0.170 HD
ATOM     27  O   UNL     1      50.986  38.301 -30.283  1.00  0.00    -0.269 OA
BRANCH  25  28
ATOM     28  C   UNL     1      52.615  37.292 -29.711  1.00  0.00     0.050 A 
ATOM     29  C   UNL     1      52.993  36.079 -30.930  1.00  0.00     0.105 A 
ATOM     30  C   UNL     1      52.704  36.294 -29.996  1.00  0.00     0.028 A 
ATOM     31  C   UNL     1      53.082  35.125 -31.217  1.00  0.00     0.046 A 
ATOM     32  C   UNL     1      52.506  35.556 -29.351  1.00  0.00     0.008 A 
ATOM     33  C   UNL     1      52.884  34.387 -30.572  1.00  0.00     0.096 A 
ATOM     34  C   UNL     1      52.205  35.765 -28.377  1.00  0.00     0.102 A 
ATOM     35  C   UNL     1      52.596  34.603 -29.640  1.00  0.00     0.033 A 
ATOM     36  C   UNL     1      52.316  37.524 -28.741  1.00  0.00     0.028 A 
ATOM     37  C   UNL     1      52.109  36.755 -28.069  1.00  0.00     0.025 A 
BRANCH  29  38
ATOM     38  S   UNL     1      53.274  36.381 -31.841  1.00  0.00     0.295 S 
ATOM     39  O   UNL     1      54.204  36.527 -31.505  1.00  0.00    -0.194 OA
ATOM     40  O   UNL     1      52.343  36.234 -32.176  1.00  0.00    -0.194 OA
BRANCH  38  41
ATOM     41  O   UNL     1      53.554  36.682 -32.752  1.00  0.00    -0.282 OA
ATOM     42  H   UNL     1      53.434  37.261 -32.938  1.00  0.00     0.234 HD
ENDBRANCH  38  41
ENDBRANCH  29  38
BRANCH  33  43
ATOM     43  S   UNL     1      52.974  33.434 -30.861  1.00  0.00     0.294 S 
ATOM     44  O   UNL     1      53.937  33.443 -30.593  1.00  0.00    -0.194 OA
ATOM     45  O   UNL     1      52.010  33.425 -31.129  1.00  0.00    -0.194 OA
BRANCH  43  46
ATOM     46  O   UNL     1      53.063  32.481 -31.150  1.00  0.00    -0.282 OA
ATOM     47  H   UNL     1      52.921  32.023 -30.758  1.00  0.00     0.234 HD
ENDBRANCH  43  46
ENDBRANCH  33  43
BRANCH  34  48
ATOM     48  S   UNL     1      52.009  35.019 -27.740  1.00  0.00     0.295 S 
ATOM     49  O   UNL     1      52.966  35.017 -27.448  1.00  0.00    -0.194 OA
ATOM     50  O   UNL     1      51.053  35.019 -28.032  1.00  0.00    -0.194 OA
BRANCH  48  51
ATOM     51  O   UNL     1      51.814  34.273 -27.103  1.00  0.00    -0.282 OA
ATOM     52  H   UNL     1      52.276  34.007 -26.786  1.00  0.00     0.234 HD
ENDBRANCH  48  51
ENDBRANCH  34  48
ENDBRANCH  25  28
ENDBRANCH  18  24
ENDBRANCH  14  17
ENDBRANCH   8  13
ENDBRANCH   2   7
BRANCH   3  53
ATOM     53  C   UNL     1      58.484  40.762 -32.277  1.00  0.00     0.043 A 
ATOM     54  C   UNL     1      58.442  39.961 -31.680  1.00  0.00     0.040 A 
ATOM     55  C   UNL     1      58.983  41.577 -31.984  1.00  0.00     0.026 A 
ATOM     56  C   UNL     1      58.900  39.975 -30.791  1.00  0.00     0.042 A 
ATOM     57  C   UNL     1      59.441  41.592 -31.095  1.00  0.00     0.003 A 
ATOM     58  C   UNL     1      59.399  40.790 -30.499  1.00  0.00     0.014 A 
BRANCH  56  59
ATOM     59  C   UNL     1      58.858  39.173 -30.195  1.00  0.00     0.255 C 
ATOM     60  O   UNL     1      58.078  39.047 -29.581  1.00  0.00    -0.269 OA
ATOM     61  N   UNL     1      59.595  38.498 -30.212  1.00  0.00    -0.322 N 
ATOM     62  H   UNL     1      60.078  38.576 -30.593  1.00  0.00     0.170 HD
BRANCH  61  63
ATOM     63  C   UNL     1      59.553  37.696 -29.615  1.00  0.00     0.045 A 
ATOM     64  C   UNL     1      59.313  37.802 -28.650  1.00  0.00     0.040 A 
ATOM     65  C   UNL     1      59.751  36.788 -29.984  1.00  0.00    -0.027 A 
ATOM     66  C   UNL     1      59.271  37.001 -28.054  1.00  0.00     0.042 A 
ATOM     67  C   UNL     1      59.709  35.986 -29.388  1.00  0.00     0.006 A 
ATOM     68  C   UNL     1      59.991  36.681 -30.949  1.00  0.00     0.046 C 
ATOM     69  C   UNL     1      59.469  36.093 -28.423  1.00  0.00     0.014 A 
BRANCH  66  70
ATOM     70  C   UNL     1      59.031  37.108 -27.089  1.00  0.00     0.255 C 
ATOM     71  O   UNL     1      59.739  37.037 -26.386  1.00  0.00    -0.269 OA
ATOM     72  N   UNL     1      58.082  37.286 -26.827  1.00  0.00    -0.321 N 
ATOM     73  H   UNL     1      57.914  37.273 -27.425  1.00  0.00     0.170 HD
BRANCH  72  74
ATOM     74  C   UNL     1      57.841  37.393 -25.862  1.00  0.00     0.050 A 
ATOM     75  C   UNL     1      56.842  37.399 -25.569  1.00  0.00     0.028 A 
ATOM     76  C   UNL     1      58.588  37.499 -25.144  1.00  0.00     0.028 A 
ATOM     77  C   UNL     1      56.590  37.506 -24.607  1.00  0.00     0.008 A 
ATOM     78  C   UNL     1      56.130  37.297 -26.264  1.00  0.00     0.105 A 
ATOM     79  C   UNL     1      58.326  37.610 -24.143  1.00  0.00     0.025 A 
ATOM     80  C   UNL     1      57.321  37.614 -23.872  1.00  0.00     0.102 A 
ATOM     81  C   UNL     1      55.627  37.510 -24.340  1.00  0.00     0.033 A 
ATOM     82  C   UNL     1      55.166  37.301 -25.997  1.00  0.00     0.046 A 
ATOM     83  C   UNL     1      54.915  37.408 -25.035  1.00  0.00     0.096 A 
BRANCH  78  84
ATOM     84  S   UNL     1      55.864  37.176 -27.221  1.00  0.00     0.295 S 
ATOM     85  O   UNL     1      55.599  37.056 -28.177  1.00  0.00    -0.194 OA
ATOM     86  O   UNL     1      55.894  38.167 -27.354  1.00  0.00    -0.194 OA
BRANCH  84  87
ATOM     87  O   UNL     1      55.835  36.186 -27.087  1.00  0.00    -0.282 OA
ATOM     88  H   UNL     1      55.993  35.806 -27.551  1.00  0.00     0.234 HD
ENDBRANCH  84  87
ENDBRANCH  78  84
BRANCH  80  89
ATOM     89  S   UNL     1      57.058  37.720 -22.913  1.00  0.00     0.295 S 
ATOM     90  O   UNL     1      57.047  38.713 -23.025  1.00  0.00    -0.194 OA
ATOM     91  O   UNL     1      57.069  36.726 -22.801  1.00  0.00    -0.194 OA
BRANCH  89  92
ATOM     92  O   UNL     1      56.796  37.825 -21.954  1.00  0.00    -0.282 OA
ATOM     93  H   UNL     1      56.710  37.323 -21.599  1.00  0.00     0.234 HD
ENDBRANCH  89  92
ENDBRANCH  80  89
BRANCH  83  94
ATOM     94  S   UNL     1      53.951  37.412 -24.768  1.00  0.00     0.294 S 
ATOM     95  O   UNL     1      53.931  36.414 -24.826  1.00  0.00    -0.194 OA
ATOM     96  O   UNL     1      53.972  38.410 -24.710  1.00  0.00    -0.194 OA
BRANCH  94  97
ATOM     97  O   UNL     1      52.988  37.417 -24.501  1.00  0.00    -0.282 OA
ATOM     98  H   UNL     1      52.582  37.052 -24.796  1.00  0.00     0.234 HD
ENDBRANCH  94  97
ENDBRANCH  83  94
ENDBRANCH  72  74
ENDBRANCH  66  70
ENDBRANCH  61  63
ENDBRANCH  56  59
ENDBRANCH   3  53
TORSDOF 22
ENDMDL
MODEL 2
REMARK VINA RESULT:   -11.951      1.154      7.043
REMARK INTER + INTRA:          19.298
REMARK INTER:                 -26.503
REMARK INTRA:                  45.802
REMARK UNBOUND:                44.523
REMARK SMILES Cc1ccc(C(=O)Nc2ccc(S(=O)(=O)O)c3cc(S(=O)(=O)O)cc(S(=O)(=O)O)c23)cc1NC(=O)c1cccc(NC(=O)Nc2cccc(C(=O)Nc3cc(C(=O)Nc4ccc(S(=O)(=O)O)c5cc(S(=O)(=O)O)cc(S(=O)(=O)O)c45)ccc3C)c2)c1
REMARK SMILES IDX 43 1 41 2 44 3 42 4 40 7 36 8 86 9 37 10 38 11 39 12 34 13
REMARK SMILES IDX 33 14 35 16 32 17 5 18 31 19 4 20 3 21 2 22 1 23 6 24 8 25
REMARK SMILES IDX 7 27 9 28 25 29 30 30 24 31 17 32 19 33 12 34 18 35 10 36
REMARK SMILES IDX 11 37 26 38 27 39 28 40 29 41 20 43 21 44 22 45 23 46 13 48
REMARK SMILES IDX 14 49 15 50 16 51 45 53 85 54 46 55 49 56 47 57 48 58 50 59
REMARK SMILES IDX 51 60 52 61 53 63 54 64 83 65 55 66 82 67 84 68 81 69 56 70
REMARK SMILES IDX 57 71 58 72 59 74 80 75 60 76 67 77 75 78 61 79 62 80 68 81
REMARK SMILES IDX 74 82 69 83 76 84 77 85 78 86 79 87 63 89 64 90 65 91 66 92
REMARK SMILES IDX 70 94 71 95 72 96 73 97
REMARK H PARENT 41 5 44 6 33 15 8 26 29 42 23 47 16 52 52 62 58 73 79 88 66 93
REMARK H PARENT 73 98
REMARK Flexibility Score: inf
ROOT
ATOM      1  O   UNL     1      57.498  40.507 -32.694  1.00  0.00    -0.248 OA
ATOM      2  N   UNL     1      58.378  41.912 -32.194  1.00  0.00    -0.308 N 
ATOM      3  N   UNL     1      56.839  42.085 -32.969  1.00  0.00    -0.308 N 
ATOM      4  C   UNL     1      57.572  41.501 -32.619  1.00  0.00     0.323 C 
ATOM      5  H   UNL     1      58.424  42.529 -32.147  1.00  0.00     0.171 HD
ATOM      6  H   UNL     1      56.884  42.701 -32.922  1.00  0.00     0.171 HD
ENDROOT
BRANCH   2   7
ATOM      7  C   UNL     1      59.111  41.329 -31.844  1.00  0.00     0.043 A 
ATOM      8  C   UNL     1      59.642  40.039 -30.816  1.00  0.00     0.042 A 
ATOM      9  C   UNL     1      58.908  40.622 -31.166  1.00  0.00     0.040 A 
ATOM     10  C   UNL     1      60.578  40.163 -31.144  1.00  0.00     0.014 A 
ATOM     11  C   UNL     1      60.781  40.870 -31.822  1.00  0.00     0.003 A 
ATOM     12  C   UNL     1      60.047  41.453 -32.172  1.00  0.00     0.026 A 
BRANCH   8  13
ATOM     13  C   UNL     1      59.438  39.333 -30.139  1.00  0.00     0.255 C 
ATOM     14  N   UNL     1      59.020  38.471 -30.425  1.00  0.00    -0.322 N 
ATOM     15  H   UNL     1      58.887  38.374 -31.023  1.00  0.00     0.170 HD
ATOM     16  O   UNL     1      59.653  39.489 -29.175  1.00  0.00    -0.269 OA
BRANCH  14  17
ATOM     17  C   UNL     1      58.817  37.765 -29.747  1.00  0.00     0.045 A 
ATOM     18  C   UNL     1      57.983  37.253 -28.318  1.00  0.00     0.042 A 
ATOM     19  C   UNL     1      58.186  37.959 -28.996  1.00  0.00     0.040 A 
ATOM     20  C   UNL     1      58.411  36.353 -28.390  1.00  0.00     0.014 A 
ATOM     21  C   UNL     1      59.043  36.158 -29.141  1.00  0.00     0.006 A 
ATOM     22  C   UNL     1      59.246  36.864 -29.819  1.00  0.00    -0.027 A 
ATOM     23  C   UNL     1      59.877  36.670 -30.570  1.00  0.00     0.046 C 
BRANCH  18  24
ATOM     24  C   UNL     1      57.351  37.448 -27.567  1.00  0.00     0.255 C 
ATOM     25  N   UNL     1      57.240  36.787 -26.824  1.00  0.00    -0.321 N 
ATOM     26  H   UNL     1      57.562  36.258 -26.829  1.00  0.00     0.170 HD
ATOM     27  O   UNL     1      56.831  38.302 -27.560  1.00  0.00    -0.269 OA
BRANCH  25  28
ATOM     28  C   UNL     1      56.608  36.982 -26.074  1.00  0.00     0.050 A 
ATOM     29  C   UNL     1      57.217  37.521 -24.513  1.00  0.00     0.105 A 
ATOM     30  C   UNL     1      56.436  37.283 -25.091  1.00  0.00     0.028 A 
ATOM     31  C   UNL     1      57.066  37.812 -23.567  1.00  0.00     0.046 A 
ATOM     32  C   UNL     1      55.507  37.334 -24.725  1.00  0.00     0.008 A 
ATOM     33  C   UNL     1      56.137  37.863 -23.201  1.00  0.00     0.096 A 
ATOM     34  C   UNL     1      54.686  37.088 -25.315  1.00  0.00     0.102 A 
ATOM     35  C   UNL     1      55.359  37.624 -23.780  1.00  0.00     0.033 A 
ATOM     36  C   UNL     1      55.801  36.731 -26.682  1.00  0.00     0.028 A 
ATOM     37  C   UNL     1      54.833  36.785 -26.301  1.00  0.00     0.025 A 
BRANCH  29  38
ATOM     38  S   UNL     1      58.203  37.630 -24.390  1.00  0.00     0.295 S 
ATOM     39  O   UNL     1      58.284  36.654 -24.184  1.00  0.00    -0.194 OA
ATOM     40  O   UNL     1      58.122  38.605 -24.596  1.00  0.00    -0.194 OA
BRANCH  38  41
ATOM     41  O   UNL     1      59.190  37.738 -24.267  1.00  0.00    -0.282 OA
ATOM     42  H   UNL     1      59.430  37.770 -23.697  1.00  0.00     0.234 HD
ENDBRANCH  38  41
ENDBRANCH  29  38
BRANCH  33  43
ATOM     43  S   UNL     1      55.989  38.153 -22.256  1.00  0.00     0.294 S 
ATOM     44  O   UNL     1      56.145  37.217 -21.943  1.00  0.00    -0.194 OA
ATOM     45  O   UNL     1      55.833  39.090 -22.569  1.00  0.00    -0.194 OA
BRANCH  43  46
ATOM     46  O   UNL     1      55.840  38.445 -21.311  1.00  0.00    -0.282 OA
ATOM     47  H   UNL     1      56.315  38.464 -20.913  1.00  0.00     0.234 HD
ENDBRANCH  43  46
ENDBRANCH  33  43
BRANCH  34  48
ATOM     48  S   UNL     1      53.761  37.143 -24.938  1.00  0.00     0.295 S 
ATOM     49  O   UNL     1      53.744  38.126 -25.125  1.00  0.00    -0.194 OA
ATOM     50  O   UNL     1      53.778  36.161 -24.752  1.00  0.00    -0.194 OA
BRANCH  48  51
ATOM     51  O   UNL     1      52.836  37.199 -24.562  1.00  0.00    -0.282 OA
ATOM     52  H   UNL     1      52.424  37.589 -24.810  1.00  0.00     0.234 HD
ENDBRANCH  48  51
ENDBRANCH  34  48
ENDBRANCH  25  28
ENDBRANCH  18  24
ENDBRANCH  14  17
ENDBRANCH   8  13
ENDBRANCH   2   7
BRANCH   3  53
ATOM     53  C   UNL     1      56.032  41.673 -33.394  1.00  0.00     0.043 A 
ATOM     54  C   UNL     1      55.240  41.430 -32.834  1.00  0.00     0.040 A 
ATOM     55  C   UNL     1      56.018  41.505 -34.379  1.00  0.00     0.026 A 
ATOM     56  C   UNL     1      54.435  41.018 -33.259  1.00  0.00     0.042 A 
ATOM     57  C   UNL     1      55.212  41.093 -34.805  1.00  0.00     0.003 A 
ATOM     58  C   UNL     1      54.420  40.850 -34.245  1.00  0.00     0.014 A 
BRANCH  56  59
ATOM     59  C   UNL     1      53.643  40.775 -32.699  1.00  0.00     0.255 C 
ATOM     60  O   UNL     1      52.982  40.103 -33.033  1.00  0.00    -0.269 OA
ATOM     61  N   UNL     1      53.511  41.204 -31.805  1.00  0.00    -0.322 N 
ATOM     62  H   UNL     1      53.921  41.621 -31.598  1.00  0.00     0.170 HD
BRANCH  61  63
ATOM     63  C   UNL     1      52.719  40.961 -31.245  1.00  0.00     0.045 A 
ATOM     64  C   UNL     1      52.568  40.009 -30.979  1.00  0.00     0.040 A 
ATOM     65  C   UNL     1      52.078  41.670 -30.951  1.00  0.00    -0.027 A 
ATOM     66  C   UNL     1      51.776  39.766 -30.419  1.00  0.00     0.042 A 
ATOM     67  C   UNL     1      51.287  41.427 -30.391  1.00  0.00     0.006 A 
ATOM     68  C   UNL     1      52.230  42.622 -31.217  1.00  0.00     0.046 C 
ATOM     69  C   UNL     1      51.136  40.474 -30.125  1.00  0.00     0.014 A 
BRANCH  66  70
ATOM     70  C   UNL     1      51.625  38.813 -30.154  1.00  0.00     0.255 C 
ATOM     71  O   UNL     1      50.694  38.455 -30.083  1.00  0.00    -0.269 OA
ATOM     72  N   UNL     1      52.406  38.219 -29.959  1.00  0.00    -0.321 N 
ATOM     73  H   UNL     1      52.794  38.689 -30.079  1.00  0.00     0.170 HD
BRANCH  72  74
ATOM     74  C   UNL     1      52.256  37.267 -29.693  1.00  0.00     0.050 A 
ATOM     75  C   UNL     1      53.020  36.567 -29.797  1.00  0.00     0.028 A 
ATOM     76  C   UNL     1      51.335  36.969 -29.310  1.00  0.00     0.028 A 
ATOM     77  C   UNL     1      52.881  35.613 -29.535  1.00  0.00     0.008 A 
ATOM     78  C   UNL     1      53.902  36.861 -30.166  1.00  0.00     0.105 A 
ATOM     79  C   UNL     1      51.189  35.975 -29.037  1.00  0.00     0.025 A 
ATOM     80  C   UNL     1      51.968  35.292 -29.150  1.00  0.00     0.102 A 
ATOM     81  C   UNL     1      53.623  34.951 -29.641  1.00  0.00     0.033 A 
ATOM     82  C   UNL     1      54.645  36.200 -30.272  1.00  0.00     0.046 A 
ATOM     83  C   UNL     1      54.506  35.245 -30.009  1.00  0.00     0.096 A 
BRANCH  78  84
ATOM     84  S   UNL     1      54.492  37.582 -30.530  1.00  0.00     0.295 S 
ATOM     85  O   UNL     1      55.082  38.302 -30.895  1.00  0.00    -0.194 OA
ATOM     86  O   UNL     1      54.224  37.331 -31.460  1.00  0.00    -0.194 OA
BRANCH  84  87
ATOM     87  O   UNL     1      54.761  37.832 -29.600  1.00  0.00    -0.282 OA
ATOM     88  H   UNL     1      54.418  37.647 -29.118  1.00  0.00     0.234 HD
ENDBRANCH  84  87
ENDBRANCH  78  84
BRANCH  80  89
ATOM     89  S   UNL     1      51.838  34.334 -28.890  1.00  0.00     0.295 S 
ATOM     90  O   UNL     1      51.505  34.129 -29.810  1.00  0.00    -0.194 OA
ATOM     91  O   UNL     1      52.172  34.540 -27.970  1.00  0.00    -0.194 OA
BRANCH  89  92
ATOM     92  O   UNL     1      51.710  33.378 -28.629  1.00  0.00    -0.282 OA
ATOM     93  H   UNL     1      51.202  33.208 -28.316  1.00  0.00     0.234 HD
ENDBRANCH  89  92
ENDBRANCH  80  89
BRANCH  83  94
ATOM     94  S   UNL     1      55.248  34.584 -30.115  1.00  0.00     0.294 S 
ATOM     95  O   UNL     1      54.741  34.132 -30.849  1.00  0.00    -0.194 OA
ATOM     96  O   UNL     1      55.755  35.035 -29.381  1.00  0.00    -0.194 OA
BRANCH  94  97
ATOM     97  O   UNL     1      55.991  33.922 -30.221  1.00  0.00    -0.282 OA
ATOM     98  H   UNL     1      56.056  33.612 -30.753  1.00  0.00     0.234 HD
ENDBRANCH  94  97
ENDBRANCH  83  94
ENDBRANCH  72  74
ENDBRANCH  66  70
ENDBRANCH  61  63
ENDBRANCH  56  59
ENDBRANCH   3  53
TORSDOF 22
ENDMDL
MODEL 3
REMARK VINA RESULT:   -11.936      2.014      6.477
REMARK INTER + INTRA:          19.328
REMARK INTER:                 -25.453
REMARK INTRA:                  44.781
REMARK UNBOUND:                44.523
REMARK SMILES Cc1ccc(C(=O)Nc2ccc(S(=O)(=O)O)c3cc(S(=O)(=O)O)cc(S(=O)(=O)O)c23)cc1NC(=O)c1cccc(NC(=O)Nc2cccc(C(=O)Nc3cc(C(=O)Nc4ccc(S(=O)(=O)O)c5cc(S(=O)(=O)O)cc(S(=O)(=O)O)c45)ccc3C)c2)c1
REMARK SMILES IDX 43 1 41 2 44 3 42 4 40 7 36 8 86 9 37 10 38 11 39 12 34 13
REMARK SMILES IDX 33 14 35 16 32 17 5 18 31 19 4 20 3 21 2 22 1 23 6 24 8 25
REMARK SMILES IDX 7 27 9 28 25 29 30 30 24 31 17 32 19 33 12 34 18 35 10 36
REMARK SMILES IDX 11 37 26 38 27 39 28 40 29 41 20 43 21 44 22 45 23 46 13 48
REMARK SMILES IDX 14 49 15 50 16 51 45 53 85 54 46 55 49 56 47 57 48 58 50 59
REMARK SMILES IDX 51 60 52 61 53 63 54 64 83 65 55 66 82 67 84 68 81 69 56 70
REMARK SMILES IDX 57 71 58 72 59 74 80 75 60 76 67 77 75 78 61 79 62 80 68 81
REMARK SMILES IDX 74 82 69 83 76 84 77 85 78 86 79 87 63 89 64 90 65 91 66 92
REMARK SMILES IDX 70 94 71 95 72 96 73 97
REMARK H PARENT 41 5 44 6 33 15 8 26 29 42 23 47 16 52 52 62 58 73 79 88 66 93
REMARK H PARENT 73 98
REMARK Flexibility Score: inf
ROOT
ATOM      1  O   UNL     1      59.582  39.287 -28.990  1.00  0.00    -0.248 OA
ATOM      2  N   UNL     1      60.199  37.675 -28.849  1.00  0.00    -0.308 N 
ATOM      3  N   UNL     1      60.402  38.554 -30.328  1.00  0.00    -0.308 N 
ATOM      4  C   UNL     1      60.061  38.506 -29.389  1.00  0.00     0.323 C 
ATOM      5  H   UNL     1      60.496  37.191 -29.097  1.00  0.00     0.171 HD
ATOM      6  H   UNL     1      60.699  38.070 -30.575  1.00  0.00     0.171 HD
ENDROOT
BRANCH   2   7
ATOM      7  C   UNL     1      59.858  37.626 -27.911  1.00  0.00     0.043 A 
ATOM      8  C   UNL     1      58.553  37.377 -26.799  1.00  0.00     0.042 A 
ATOM      9  C   UNL     1      58.894  37.426 -27.738  1.00  0.00     0.040 A 
ATOM     10  C   UNL     1      59.177  37.528 -26.033  1.00  0.00     0.014 A 
ATOM     11  C   UNL     1      60.141  37.729 -26.205  1.00  0.00     0.003 A 
ATOM     12  C   UNL     1      60.482  37.778 -27.144  1.00  0.00     0.026 A 
BRANCH   8  13
ATOM     13  C   UNL     1      57.589  37.177 -26.628  1.00  0.00     0.255 C 
ATOM     14  N   UNL     1      57.134  37.559 -25.824  1.00  0.00    -0.322 N 
ATOM     15  H   UNL     1      57.449  37.920 -25.431  1.00  0.00     0.170 HD
ATOM     16  O   UNL     1      57.080  36.594 -27.261  1.00  0.00    -0.269 OA
BRANCH  14  17
ATOM     17  C   UNL     1      56.169  37.357 -25.653  1.00  0.00     0.045 A 
ATOM     18  C   UNL     1      54.596  36.942 -26.245  1.00  0.00     0.042 A 
ATOM     19  C   UNL     1      55.560  37.143 -26.416  1.00  0.00     0.040 A 
ATOM     20  C   UNL     1      54.240  36.956 -25.310  1.00  0.00     0.014 A 
ATOM     21  C   UNL     1      54.850  37.170 -24.547  1.00  0.00     0.006 A 
ATOM     22  C   UNL     1      55.814  37.371 -24.717  1.00  0.00    -0.027 A 
ATOM     23  C   UNL     1      56.424  37.585 -23.955  1.00  0.00     0.046 C 
BRANCH  18  24
ATOM     24  C   UNL     1      53.986  36.728 -27.009  1.00  0.00     0.255 C 
ATOM     25  N   UNL     1      53.906  35.786 -27.334  1.00  0.00    -0.321 N 
ATOM     26  H   UNL     1      54.233  35.335 -27.063  1.00  0.00     0.170 HD
ATOM     27  O   UNL     1      53.458  37.456 -27.446  1.00  0.00    -0.269 OA
BRANCH  25  28
ATOM     28  C   UNL     1      53.297  35.572 -28.098  1.00  0.00     0.050 A 
ATOM     29  C   UNL     1      53.913  35.529 -29.746  1.00  0.00     0.105 A 
ATOM     30  C   UNL     1      53.141  35.429 -29.118  1.00  0.00     0.028 A 
ATOM     31  C   UNL     1      53.778  35.395 -30.728  1.00  0.00     0.046 A 
ATOM     32  C   UNL     1      52.236  35.194 -29.472  1.00  0.00     0.008 A 
ATOM     33  C   UNL     1      52.873  35.160 -31.082  1.00  0.00     0.096 A 
ATOM     34  C   UNL     1      51.423  35.086 -28.829  1.00  0.00     0.102 A 
ATOM     35  C   UNL     1      52.102  35.060 -30.453  1.00  0.00     0.033 A 
ATOM     36  C   UNL     1      52.498  35.469 -27.437  1.00  0.00     0.028 A 
ATOM     37  C   UNL     1      51.555  35.224 -27.805  1.00  0.00     0.025 A 
BRANCH  29  38
ATOM     38  S   UNL     1      54.881  35.723 -29.905  1.00  0.00     0.295 S 
ATOM     39  O   UNL     1      55.095  34.753 -29.781  1.00  0.00    -0.194 OA
ATOM     40  O   UNL     1      54.668  36.692 -30.029  1.00  0.00    -0.194 OA
BRANCH  38  41
ATOM     41  O   UNL     1      55.850  35.916 -30.064  1.00  0.00    -0.282 OA
ATOM     42  H   UNL     1      56.054  36.502 -30.057  1.00  0.00     0.234 HD
ENDBRANCH  38  41
ENDBRANCH  29  38
BRANCH  33  43
ATOM     43  S   UNL     1      52.740  35.026 -32.063  1.00  0.00     0.294 S 
ATOM     44  O   UNL     1      52.644  36.014 -32.186  1.00  0.00    -0.194 OA
ATOM     45  O   UNL     1      52.835  34.038 -31.940  1.00  0.00    -0.194 OA
BRANCH  43  46
ATOM     46  O   UNL     1      52.606  34.891 -33.045  1.00  0.00    -0.282 OA
ATOM     47  H   UNL     1      52.134  35.167 -33.335  1.00  0.00     0.234 HD
ENDBRANCH  43  46
ENDBRANCH  33  43
BRANCH  34  48
ATOM     48  S   UNL     1      50.522  34.851 -29.194  1.00  0.00     0.295 S 
ATOM     49  O   UNL     1      50.738  33.879 -29.101  1.00  0.00    -0.194 OA
ATOM     50  O   UNL     1      50.305  35.823 -29.287  1.00  0.00    -0.194 OA
BRANCH  48  51
ATOM     51  O   UNL     1      49.621  34.615 -29.558  1.00  0.00    -0.282 OA
ATOM     52  H   UNL     1      49.376  34.949 -30.019  1.00  0.00     0.234 HD
ENDBRANCH  48  51
ENDBRANCH  34  48
ENDBRANCH  25  28
ENDBRANCH  18  24
ENDBRANCH  14  17
ENDBRANCH   8  13
ENDBRANCH   2   7
BRANCH   3  53
ATOM     53  C   UNL     1      60.264  39.385 -30.867  1.00  0.00     0.043 A 
ATOM     54  C   UNL     1      59.416  39.513 -31.381  1.00  0.00     0.040 A 
ATOM     55  C   UNL     1      60.975  40.088 -30.893  1.00  0.00     0.026 A 
ATOM     56  C   UNL     1      59.278  40.344 -31.920  1.00  0.00     0.042 A 
ATOM     57  C   UNL     1      60.838  40.919 -31.432  1.00  0.00     0.003 A 
ATOM     58  C   UNL     1      59.989  41.047 -31.946  1.00  0.00     0.014 A 
BRANCH  56  59
ATOM     59  C   UNL     1      58.430  40.472 -32.434  1.00  0.00     0.255 C 
ATOM     60  O   UNL     1      57.562  40.155 -32.052  1.00  0.00    -0.269 OA
ATOM     61  N   UNL     1      58.449  40.917 -33.329  1.00  0.00    -0.322 N 
ATOM     62  H   UNL     1      58.988  41.113 -33.566  1.00  0.00     0.170 HD
BRANCH  61  63
ATOM     63  C   UNL     1      57.601  41.045 -33.843  1.00  0.00     0.045 A 
ATOM     64  C   UNL     1      56.781  41.381 -33.379  1.00  0.00     0.040 A 
ATOM     65  C   UNL     1      57.572  40.836 -34.821  1.00  0.00    -0.027 A 
ATOM     66  C   UNL     1      55.933  41.509 -33.893  1.00  0.00     0.042 A 
ATOM     67  C   UNL     1      56.724  40.964 -35.334  1.00  0.00     0.006 A 
ATOM     68  C   UNL     1      58.392  40.500 -35.284  1.00  0.00     0.046 C 
ATOM     69  C   UNL     1      55.904  41.301 -34.870  1.00  0.00     0.014 A 
BRANCH  66  70
ATOM     70  C   UNL     1      55.113  41.845 -33.428  1.00  0.00     0.255 C 
ATOM     71  O   UNL     1      54.693  42.706 -33.716  1.00  0.00    -0.269 OA
ATOM     72  N   UNL     1      54.714  41.320 -32.676  1.00  0.00    -0.321 N 
ATOM     73  H   UNL     1      55.159  40.891 -32.740  1.00  0.00     0.170 HD
BRANCH  72  74
ATOM     74  C   UNL     1      53.895  41.656 -32.211  1.00  0.00     0.050 A 
ATOM     75  C   UNL     1      53.281  40.996 -31.690  1.00  0.00     0.028 A 
ATOM     76  C   UNL     1      53.650  42.668 -32.246  1.00  0.00     0.028 A 
ATOM     77  C   UNL     1      52.459  41.321 -31.222  1.00  0.00     0.008 A 
ATOM     78  C   UNL     1      53.522  40.026 -31.661  1.00  0.00     0.105 A 
ATOM     79  C   UNL     1      52.795  43.006 -31.758  1.00  0.00     0.025 A 
ATOM     80  C   UNL     1      52.195  42.328 -31.243  1.00  0.00     0.102 A 
ATOM     81  C   UNL     1      51.879  40.676 -30.725  1.00  0.00     0.033 A 
ATOM     82  C   UNL     1      52.942  39.381 -31.164  1.00  0.00     0.046 A 
ATOM     83  C   UNL     1      52.120  39.706 -30.696  1.00  0.00     0.096 A 
BRANCH  78  84
ATOM     84  S   UNL     1      54.136  39.278 -31.915  1.00  0.00     0.295 S 
ATOM     85  O   UNL     1      54.749  38.530 -32.169  1.00  0.00    -0.194 OA
ATOM     86  O   UNL     1      53.605  39.125 -32.749  1.00  0.00    -0.194 OA
BRANCH  84  87
ATOM     87  O   UNL     1      54.666  39.430 -31.082  1.00  0.00    -0.282 OA
ATOM     88  H   UNL     1      54.377  39.572 -30.552  1.00  0.00     0.234 HD
ENDBRANCH  84  87
ENDBRANCH  78  84
BRANCH  80  89
ATOM     89  S   UNL     1      51.371  42.643 -30.771  1.00  0.00     0.295 S 
ATOM     90  O   UNL     1      50.842  42.517 -31.610  1.00  0.00    -0.194 OA
ATOM     91  O   UNL     1      51.901  42.769 -29.932  1.00  0.00    -0.194 OA
BRANCH  89  92
ATOM     92  O   UNL     1      50.548  42.958 -30.298  1.00  0.00    -0.282 OA
ATOM     93  H   UNL     1      50.515  42.927 -29.680  1.00  0.00     0.234 HD
ENDBRANCH  89  92
ENDBRANCH  80  89
BRANCH  83  94
ATOM     94  S   UNL     1      51.539  39.061 -30.199  1.00  0.00     0.294 S 
ATOM     95  O   UNL     1      51.147  38.748 -31.064  1.00  0.00    -0.194 OA
ATOM     96  O   UNL     1      51.932  39.374 -29.334  1.00  0.00    -0.194 OA
BRANCH  94  97
ATOM     97  O   UNL     1      50.959  38.416 -29.702  1.00  0.00    -0.282 OA
ATOM     98  H   UNL     1      51.055  37.806 -29.758  1.00  0.00     0.234 HD
ENDBRANCH  94  97
ENDBRANCH  83  94
ENDBRANCH  72  74
ENDBRANCH  66  70
ENDBRANCH  61  63
ENDBRANCH  56  59
ENDBRANCH   3  53
TORSDOF 22
ENDMDL
MODEL 4
REMARK VINA RESULT:   -11.935      4.959      8.787
REMARK INTER + INTRA:          19.330
REMARK INTER:                 -29.624
REMARK INTRA:                  48.954
REMARK UNBOUND:                44.523
REMARK SMILES Cc1ccc(C(=O)Nc2ccc(S(=O)(=O)O)c3cc(S(=O)(=O)O)cc(S(=O)(=O)O)c23)cc1NC(=O)c1cccc(NC(=O)Nc2cccc(C(=O)Nc3cc(C(=O)Nc4ccc(S(=O)(=O)O)c5cc(S(=O)(=O)O)cc(S(=O)(=O)O)c45)ccc3C)c2)c1
REMARK SMILES IDX 43 1 41 2 44 3 42 4 40 7 36 8 86 9 37 10 38 11 39 12 34 13
REMARK SMILES IDX 33 14 35 16 32 17 5 18 31 19 4 20 3 21 2 22 1 23 6 24 8 25
REMARK SMILES IDX 7 27 9 28 25 29 30 30 24 31 17 32 19 33 12 34 18 35 10 36
REMARK SMILES IDX 11 37 26 38 27 39 28 40 29 41 20 43 21 44 22 45 23 46 13 48
REMARK SMILES IDX 14 49 15 50 16 51 45 53 85 54 46 55 49 56 47 57 48 58 50 59
REMARK SMILES IDX 51 60 52 61 53 63 54 64 83 65 55 66 82 67 84 68 81 69 56 70
REMARK SMILES IDX 57 71 58 72 59 74 80 75 60 76 67 77 75 78 61 79 62 80 68 81
REMARK SMILES IDX 74 82 69 83 76 84 77 85 78 86 79 87 63 89 64 90 65 91 66 92
REMARK SMILES IDX 70 94 71 95 72 96 73 97
REMARK H PARENT 41 5 44 6 33 15 8 26 29 42 23 47 16 52 52 62 58 73 79 88 66 93
REMARK H PARENT 73 98
REMARK Flexibility Score: inf
ROOT
ATOM      1  O   UNL     1      59.561  35.657 -29.756  1.00  0.00    -0.248 OA
ATOM      2  N   UNL     1      59.971  34.811 -28.302  1.00  0.00    -0.308 N 
ATOM      3  N   UNL     1      59.309  36.410 -28.217  1.00  0.00    -0.308 N 
ATOM      4  C   UNL     1      59.614  35.626 -28.758  1.00  0.00     0.323 C 
ATOM      5  H   UNL     1      60.004  34.792 -27.682  1.00  0.00     0.171 HD
ATOM      6  H   UNL     1      59.342  36.391 -27.598  1.00  0.00     0.171 HD
ENDROOT
BRANCH   2   7
ATOM      7  C   UNL     1      60.275  34.028 -28.843  1.00  0.00     0.043 A 
ATOM      8  C   UNL     1      59.964  32.471 -29.536  1.00  0.00     0.042 A 
ATOM      9  C   UNL     1      59.659  33.255 -28.995  1.00  0.00     0.040 A 
ATOM     10  C   UNL     1      60.885  32.460 -29.925  1.00  0.00     0.014 A 
ATOM     11  C   UNL     1      61.502  33.233 -29.773  1.00  0.00     0.003 A 
ATOM     12  C   UNL     1      61.197  34.017 -29.231  1.00  0.00     0.026 A 
BRANCH   8  13
ATOM     13  C   UNL     1      59.348  31.699 -29.688  1.00  0.00     0.255 C 
ATOM     14  N   UNL     1      59.701  30.764 -29.664  1.00  0.00    -0.322 N 
ATOM     15  H   UNL     1      60.303  30.662 -29.554  1.00  0.00     0.170 HD
ATOM     16  O   UNL     1      58.377  31.863 -29.865  1.00  0.00    -0.269 OA
BRANCH  14  17
ATOM     17  C   UNL     1      59.084  29.993 -29.816  1.00  0.00     0.045 A 
ATOM     18  C   UNL     1      57.681  29.082 -29.366  1.00  0.00     0.042 A 
ATOM     19  C   UNL     1      58.298  29.854 -29.214  1.00  0.00     0.040 A 
ATOM     20  C   UNL     1      57.849  28.449 -30.121  1.00  0.00     0.014 A 
ATOM     21  C   UNL     1      58.635  28.587 -30.724  1.00  0.00     0.006 A 
ATOM     22  C   UNL     1      59.253  29.359 -30.572  1.00  0.00    -0.027 A 
ATOM     23  C   UNL     1      60.039  29.497 -31.174  1.00  0.00     0.046 C 
BRANCH  18  24
ATOM     24  C   UNL     1      56.894  28.944 -28.764  1.00  0.00     0.255 C 
ATOM     25  N   UNL     1      56.989  28.385 -27.940  1.00  0.00    -0.321 N 
ATOM     26  H   UNL     1      57.534  28.124 -27.803  1.00  0.00     0.170 HD
ATOM     27  O   UNL     1      56.015  29.365 -28.985  1.00  0.00    -0.269 OA
BRANCH  25  28
ATOM     28  C   UNL     1      56.202  28.247 -27.337  1.00  0.00     0.050 A 
ATOM     29  C   UNL     1      55.257  26.765 -27.430  1.00  0.00     0.105 A 
ATOM     30  C   UNL     1      55.408  27.659 -27.007  1.00  0.00     0.028 A 
ATOM     31  C   UNL     1      54.498  26.189 -27.123  1.00  0.00     0.046 A 
ATOM     32  C   UNL     1      54.802  27.977 -26.278  1.00  0.00     0.008 A 
ATOM     33  C   UNL     1      53.892  26.508 -26.394  1.00  0.00     0.096 A 
ATOM     34  C   UNL     1      54.948  28.905 -25.830  1.00  0.00     0.102 A 
ATOM     35  C   UNL     1      54.044  27.401 -25.973  1.00  0.00     0.033 A 
ATOM     36  C   UNL     1      56.367  29.179 -26.902  1.00  0.00     0.028 A 
ATOM     37  C   UNL     1      55.735  29.510 -26.143  1.00  0.00     0.025 A 
BRANCH  29  38
ATOM     38  S   UNL     1      55.519  26.065 -28.095  1.00  0.00     0.295 S 
ATOM     39  O   UNL     1      54.885  26.460 -28.760  1.00  0.00    -0.194 OA
ATOM     40  O   UNL     1      56.153  25.670 -27.429  1.00  0.00    -0.194 OA
BRANCH  38  41
ATOM     41  O   UNL     1      55.782  25.365 -28.759  1.00  0.00    -0.282 OA
ATOM     42  H   UNL     1      56.282  25.013 -28.658  1.00  0.00     0.234 HD
ENDBRANCH  38  41
ENDBRANCH  29  38
BRANCH  33  43
ATOM     43  S   UNL     1      53.134  25.932 -26.089  1.00  0.00     0.294 S 
ATOM     44  O   UNL     1      53.744  25.471 -25.444  1.00  0.00    -0.194 OA
ATOM     45  O   UNL     1      52.524  26.393 -26.733  1.00  0.00    -0.194 OA
BRANCH  43  46
ATOM     46  O   UNL     1      52.376  25.356 -25.783  1.00  0.00    -0.282 OA
ATOM     47  H   UNL     1      52.043  25.519 -25.287  1.00  0.00     0.234 HD
ENDBRANCH  43  46
ENDBRANCH  33  43
BRANCH  34  48
ATOM     48  S   UNL     1      54.335  29.213 -25.102  1.00  0.00     0.295 S 
ATOM     49  O   UNL     1      54.922  28.773 -24.422  1.00  0.00    -0.194 OA
ATOM     50  O   UNL     1      53.747  29.653 -25.781  1.00  0.00    -0.194 OA
BRANCH  48  51
ATOM     51  O   UNL     1      53.723  29.520 -24.373  1.00  0.00    -0.282 OA
ATOM     52  H   UNL     1      53.868  29.412 -23.780  1.00  0.00     0.234 HD
ENDBRANCH  48  51
ENDBRANCH  34  48
ENDBRANCH  25  28
ENDBRANCH  18  24
ENDBRANCH  14  17
ENDBRANCH   8  13
ENDBRANCH   2   7
BRANCH   3  53
ATOM     53  C   UNL     1      58.952  37.224 -28.674  1.00  0.00     0.043 A 
ATOM     54  C   UNL     1      58.002  37.248 -28.983  1.00  0.00     0.040 A 
ATOM     55  C   UNL     1      59.546  38.015 -28.822  1.00  0.00     0.026 A 
ATOM     56  C   UNL     1      57.645  38.063 -29.440  1.00  0.00     0.042 A 
ATOM     57  C   UNL     1      59.190  38.830 -29.279  1.00  0.00     0.003 A 
ATOM     58  C   UNL     1      58.240  38.854 -29.588  1.00  0.00     0.014 A 
BRANCH  56  59
ATOM     59  C   UNL     1      56.695  38.088 -29.750  1.00  0.00     0.255 C 
ATOM     60  O   UNL     1      55.994  37.575 -29.253  1.00  0.00    -0.269 OA
ATOM     61  N   UNL     1      56.444  38.623 -30.556  1.00  0.00    -0.322 N 
ATOM     62  H   UNL     1      56.879  38.941 -30.864  1.00  0.00     0.170 HD
BRANCH  61  63
ATOM     63  C   UNL     1      55.494  38.648 -30.866  1.00  0.00     0.045 A 
ATOM     64  C   UNL     1      54.970  37.799 -30.941  1.00  0.00     0.040 A 
ATOM     65  C   UNL     1      55.066  39.521 -31.100  1.00  0.00    -0.027 A 
ATOM     66  C   UNL     1      54.020  37.823 -31.251  1.00  0.00     0.042 A 
ATOM     67  C   UNL     1      54.116  39.545 -31.409  1.00  0.00     0.006 A 
ATOM     68  C   UNL     1      55.590  40.370 -31.024  1.00  0.00     0.046 C 
ATOM     69  C   UNL     1      53.593  38.696 -31.485  1.00  0.00     0.014 A 
BRANCH  66  70
ATOM     70  C   UNL     1      53.497  36.973 -31.326  1.00  0.00     0.255 C 
ATOM     71  O   UNL     1      53.039  36.743 -32.184  1.00  0.00    -0.269 OA
ATOM     72  N   UNL     1      53.433  36.355 -30.543  1.00  0.00    -0.321 N 
ATOM     73  H   UNL     1      53.785  36.742 -30.208  1.00  0.00     0.170 HD
BRANCH  72  74
ATOM     74  C   UNL     1      52.911  35.506 -30.618  1.00  0.00     0.050 A 
ATOM     75  C   UNL     1      52.509  35.061 -29.766  1.00  0.00     0.028 A 
ATOM     76  C   UNL     1      52.766  35.059 -31.548  1.00  0.00     0.028 A 
ATOM     77  C   UNL     1      51.985  34.212 -29.829  1.00  0.00     0.008 A 
ATOM     78  C   UNL     1      52.652  35.495 -28.876  1.00  0.00     0.105 A 
ATOM     79  C   UNL     1      52.220  34.175 -31.614  1.00  0.00     0.025 A 
ATOM     80  C   UNL     1      51.827  33.748 -30.749  1.00  0.00     0.102 A 
ATOM     81  C   UNL     1      51.604  33.796 -29.003  1.00  0.00     0.033 A 
ATOM     82  C   UNL     1      52.271  35.079 -28.050  1.00  0.00     0.046 A 
ATOM     83  C   UNL     1      51.747  34.230 -28.114  1.00  0.00     0.096 A 
BRANCH  78  84
ATOM     84  S   UNL     1      53.037  36.236 -28.326  1.00  0.00     0.295 S 
ATOM     85  O   UNL     1      53.422  36.977 -27.776  1.00  0.00    -0.194 OA
ATOM     86  O   UNL     1      53.876  35.706 -28.200  1.00  0.00    -0.194 OA
BRANCH  84  87
ATOM     87  O   UNL     1      52.198  36.765 -28.452  1.00  0.00    -0.282 OA
ATOM     88  H   UNL     1      52.125  37.114 -28.960  1.00  0.00     0.234 HD
ENDBRANCH  84  87
ENDBRANCH  78  84
BRANCH  80  89
ATOM     89  S   UNL     1      51.301  32.899 -30.802  1.00  0.00     0.295 S 
ATOM     90  O   UNL     1      52.147  32.370 -30.728  1.00  0.00    -0.194 OA
ATOM     91  O   UNL     1      50.456  33.428 -30.875  1.00  0.00    -0.194 OA
BRANCH  89  92
ATOM     92  O   UNL     1      50.775  32.050 -30.854  1.00  0.00    -0.282 OA
ATOM     93  H   UNL     1      50.614  31.819 -31.407  1.00  0.00     0.234 HD
ENDBRANCH  89  92
ENDBRANCH  80  89
BRANCH  83  94
ATOM     94  S   UNL     1      51.367  33.814 -27.288  1.00  0.00     0.294 S 
ATOM     95  O   UNL     1      50.816  34.634 -27.129  1.00  0.00    -0.194 OA
ATOM     96  O   UNL     1      51.917  32.995 -27.447  1.00  0.00    -0.194 OA
BRANCH  94  97
ATOM     97  O   UNL     1      50.986  33.399 -26.462  1.00  0.00    -0.282 OA
ATOM     98  H   UNL     1      50.425  33.136 -26.478  1.00  0.00     0.234 HD
ENDBRANCH  94  97
ENDBRANCH  83  94
ENDBRANCH  72  74
ENDBRANCH  66  70
ENDBRANCH  61  63
ENDBRANCH  56  59
ENDBRANCH   3  53
TORSDOF 22
ENDMDL
MODEL 5
REMARK VINA RESULT:   -11.820      6.252      9.335
REMARK INTER + INTRA:          19.575
REMARK INTER:                 -29.205
REMARK INTRA:                  48.779
REMARK UNBOUND:                44.523
REMARK SMILES Cc1ccc(C(=O)Nc2ccc(S(=O)(=O)O)c3cc(S(=O)(=O)O)cc(S(=O)(=O)O)c23)cc1NC(=O)c1cccc(NC(=O)Nc2cccc(C(=O)Nc3cc(C(=O)Nc4ccc(S(=O)(=O)O)c5cc(S(=O)(=O)O)cc(S(=O)(=O)O)c45)ccc3C)c2)c1
REMARK SMILES IDX 43 1 41 2 44 3 42 4 40 7 36 8 86 9 37 10 38 11 39 12 34 13
REMARK SMILES IDX 33 14 35 16 32 17 5 18 31 19 4 20 3 21 2 22 1 23 6 24 8 25
REMARK SMILES IDX 7 27 9 28 25 29 30 30 24 31 17 32 19 33 12 34 18 35 10 36
REMARK SMILES IDX 11 37 26 38 27 39 28 40 29 41 20 43 21 44 22 45 23 46 13 48
REMARK SMILES IDX 14 49 15 50 16 51 45 53 85 54 46 55 49 56 47 57 48 58 50 59
REMARK SMILES IDX 51 60 52 61 53 63 54 64 83 65 55 66 82 67 84 68 81 69 56 70
REMARK SMILES IDX 57 71 58 72 59 74 80 75 60 76 67 77 75 78 61 79 62 80 68 81
REMARK SMILES IDX 74 82 69 83 76 84 77 85 78 86 79 87 63 89 64 90 65 91 66 92
REMARK SMILES IDX 70 94 71 95 72 96 73 97
REMARK H PARENT 41 5 44 6 33 15 8 26 29 42 23 47 16 52 52 62 58 73 79 88 66 93
REMARK H PARENT 73 98
REMARK Flexibility Score: inf
ROOT
ATOM      1  O   UNL     1      60.019  29.915 -28.985  1.00  0.00    -0.248 OA
ATOM      2  N   UNL     1      60.191  31.458 -28.219  1.00  0.00    -0.308 N 
ATOM      3  N   UNL     1      60.441  30.006 -27.307  1.00  0.00    -0.308 N 
ATOM      4  C   UNL     1      60.217  30.460 -28.170  1.00  0.00     0.323 C 
ATOM      5  H   UNL     1      60.314  31.796 -27.713  1.00  0.00     0.171 HD
ATOM      6  H   UNL     1      60.563  30.344 -26.803  1.00  0.00     0.171 HD
ENDROOT
BRANCH   2   7
ATOM      7  C   UNL     1      59.967  31.912 -29.080  1.00  0.00     0.043 A 
ATOM      8  C   UNL     1      59.071  33.105 -29.960  1.00  0.00     0.042 A 
ATOM      9  C   UNL     1      59.294  32.652 -29.097  1.00  0.00     0.040 A 
ATOM     10  C   UNL     1      59.520  32.820 -30.806  1.00  0.00     0.014 A 
ATOM     11  C   UNL     1      60.193  32.080 -30.790  1.00  0.00     0.003 A 
ATOM     12  C   UNL     1      60.417  31.626 -29.927  1.00  0.00     0.026 A 
BRANCH   8  13
ATOM     13  C   UNL     1      58.398  33.844 -29.976  1.00  0.00     0.255 C 
ATOM     14  N   UNL     1      58.577  34.694 -29.481  1.00  0.00    -0.322 N 
ATOM     15  H   UNL     1      59.105  34.764 -29.164  1.00  0.00     0.170 HD
ATOM     16  O   UNL     1      57.545  33.733 -30.487  1.00  0.00    -0.269 OA
BRANCH  14  17
ATOM     17  C   UNL     1      57.903  35.433 -29.497  1.00  0.00     0.045 A 
ATOM     18  C   UNL     1      56.255  35.960 -29.584  1.00  0.00     0.042 A 
ATOM     19  C   UNL     1      56.929  35.221 -29.568  1.00  0.00     0.040 A 
ATOM     20  C   UNL     1      56.556  36.912 -29.530  1.00  0.00     0.014 A 
ATOM     21  C   UNL     1      57.531  37.125 -29.460  1.00  0.00     0.006 A 
ATOM     22  C   UNL     1      58.205  36.386 -29.444  1.00  0.00    -0.027 A 
ATOM     23  C   UNL     1      59.179  36.598 -29.374  1.00  0.00     0.046 C 
BRANCH  18  24
ATOM     24  C   UNL     1      55.281  35.746 -29.654  1.00  0.00     0.255 C 
ATOM     25  N   UNL     1      54.899  34.977 -29.142  1.00  0.00    -0.321 N 
ATOM     26  H   UNL     1      55.267  34.632 -28.781  1.00  0.00     0.170 HD
ATOM     27  O   UNL     1      54.688  36.303 -30.236  1.00  0.00    -0.269 OA
BRANCH  25  28
ATOM     28  C   UNL     1      53.925  34.764 -29.212  1.00  0.00     0.050 A 
ATOM     29  C   UNL     1      53.362  33.519 -30.322  1.00  0.00     0.105 A 
ATOM     30  C   UNL     1      53.148  34.211 -29.632  1.00  0.00     0.028 A 
ATOM     31  C   UNL     1      52.625  32.982 -30.735  1.00  0.00     0.046 A 
ATOM     32  C   UNL     1      52.199  34.366 -29.355  1.00  0.00     0.008 A 
ATOM     33  C   UNL     1      51.677  33.136 -30.457  1.00  0.00     0.096 A 
ATOM     34  C   UNL     1      51.963  35.083 -28.638  1.00  0.00     0.102 A 
ATOM     35  C   UNL     1      51.465  33.828 -29.768  1.00  0.00     0.033 A 
ATOM     36  C   UNL     1      53.711  35.486 -28.493  1.00  0.00     0.028 A 
ATOM     37  C   UNL     1      52.723  35.647 -28.204  1.00  0.00     0.025 A 
BRANCH  29  38
ATOM     38  S   UNL     1      54.032  33.030 -30.881  1.00  0.00     0.295 S 
ATOM     39  O   UNL     1      53.895  33.689 -31.621  1.00  0.00    -0.194 OA
ATOM     40  O   UNL     1      54.169  32.372 -30.140  1.00  0.00    -0.194 OA
BRANCH  38  41
ATOM     41  O   UNL     1      54.702  32.542 -31.439  1.00  0.00    -0.282 OA
ATOM     42  H   UNL     1      55.182  32.257 -31.168  1.00  0.00     0.234 HD
ENDBRANCH  38  41
ENDBRANCH  29  38
BRANCH  33  43
ATOM     43  S   UNL     1      50.942  32.599 -30.870  1.00  0.00     0.294 S 
ATOM     44  O   UNL     1      50.968  31.967 -30.095  1.00  0.00    -0.194 OA
ATOM     45  O   UNL     1      50.916  33.230 -31.645  1.00  0.00    -0.194 OA
BRANCH  43  46
ATOM     46  O   UNL     1      50.208  32.061 -31.284  1.00  0.00    -0.282 OA
ATOM     47  H   UNL     1      49.980  32.220 -31.838  1.00  0.00     0.234 HD
ENDBRANCH  43  46
ENDBRANCH  33  43
BRANCH  34  48
ATOM     48  S   UNL     1      51.011  35.229 -28.369  1.00  0.00     0.295 S 
ATOM     49  O   UNL     1      51.112  34.549 -27.643  1.00  0.00    -0.194 OA
ATOM     50  O   UNL     1      50.909  35.910 -29.094  1.00  0.00    -0.194 OA
BRANCH  48  51
ATOM     51  O   UNL     1      50.059  35.375 -28.099  1.00  0.00    -0.282 OA
ATOM     52  H   UNL     1      49.910  35.852 -27.733  1.00  0.00     0.234 HD
ENDBRANCH  48  51
ENDBRANCH  34  48
ENDBRANCH  25  28
ENDBRANCH  18  24
ENDBRANCH  14  17
ENDBRANCH   8  13
ENDBRANCH   2   7
BRANCH   3  53
ATOM     53  C   UNL     1      60.466  29.008 -27.260  1.00  0.00     0.043 A 
ATOM     54  C   UNL     1      59.671  28.472 -27.545  1.00  0.00     0.040 A 
ATOM     55  C   UNL     1      61.288  28.544 -26.928  1.00  0.00     0.026 A 
ATOM     56  C   UNL     1      59.698  27.474 -27.497  1.00  0.00     0.042 A 
ATOM     57  C   UNL     1      61.315  27.545 -26.880  1.00  0.00     0.003 A 
ATOM     58  C   UNL     1      60.519  27.010 -27.165  1.00  0.00     0.014 A 
BRANCH  56  59
ATOM     59  C   UNL     1      58.903  26.939 -27.782  1.00  0.00     0.255 C 
ATOM     60  O   UNL     1      58.373  26.429 -27.103  1.00  0.00    -0.269 OA
ATOM     61  N   UNL     1      58.636  26.912 -28.746  1.00  0.00    -0.322 N 
ATOM     62  H   UNL     1      58.964  27.228 -29.167  1.00  0.00     0.170 HD
BRANCH  61  63
ATOM     63  C   UNL     1      57.841  26.377 -29.031  1.00  0.00     0.045 A 
ATOM     64  C   UNL     1      57.042  26.312 -28.433  1.00  0.00     0.040 A 
ATOM     65  C   UNL     1      57.845  25.907 -29.913  1.00  0.00    -0.027 A 
ATOM     66  C   UNL     1      56.246  25.776 -28.718  1.00  0.00     0.042 A 
ATOM     67  C   UNL     1      57.050  25.372 -30.198  1.00  0.00     0.006 A 
ATOM     68  C   UNL     1      58.644  25.972 -30.511  1.00  0.00     0.046 C 
ATOM     69  C   UNL     1      56.251  25.307 -29.600  1.00  0.00     0.014 A 
BRANCH  66  70
ATOM     70  C   UNL     1      55.448  25.712 -28.120  1.00  0.00     0.255 C 
ATOM     71  O   UNL     1      54.852  24.909 -28.166  1.00  0.00    -0.269 OA
ATOM     72  N   UNL     1      55.244  26.449 -27.476  1.00  0.00    -0.321 N 
ATOM     73  H   UNL     1      55.744  26.760 -27.674  1.00  0.00     0.170 HD
BRANCH  72  74
ATOM     74  C   UNL     1      54.445  26.385 -26.878  1.00  0.00     0.050 A 
ATOM     75  C   UNL     1      54.162  27.198 -26.293  1.00  0.00     0.028 A 
ATOM     76  C   UNL     1      53.891  25.504 -26.836  1.00  0.00     0.028 A 
ATOM     77  C   UNL     1      53.365  27.145 -25.691  1.00  0.00     0.008 A 
ATOM     78  C   UNL     1      54.699  28.041 -26.338  1.00  0.00     0.105 A 
ATOM     79  C   UNL     1      53.062  25.448 -26.210  1.00  0.00     0.025 A 
ATOM     80  C   UNL     1      52.796  26.274 -25.633  1.00  0.00     0.102 A 
ATOM     81  C   UNL     1      53.105  27.934 -25.134  1.00  0.00     0.033 A 
ATOM     82  C   UNL     1      54.439  28.830 -25.781  1.00  0.00     0.046 A 
ATOM     83  C   UNL     1      53.642  28.776 -25.179  1.00  0.00     0.096 A 
BRANCH  78  84
ATOM     84  S   UNL     1      55.469  28.558 -26.711  1.00  0.00     0.295 S 
ATOM     85  O   UNL     1      56.239  29.076 -27.084  1.00  0.00    -0.194 OA
ATOM     86  O   UNL     1      54.898  28.857 -27.476  1.00  0.00    -0.194 OA
BRANCH  84  87
ATOM     87  O   UNL     1      56.040  28.260 -25.946  1.00  0.00    -0.282 OA
ATOM     88  H   UNL     1      55.778  28.100 -25.408  1.00  0.00     0.234 HD
ENDBRANCH  84  87
ENDBRANCH  78  84
BRANCH  80  89
ATOM     89  S   UNL     1      52.001  26.230 -25.028  1.00  0.00     0.295 S 
ATOM     90  O   UNL     1      52.571  25.837 -24.306  1.00  0.00    -0.194 OA
ATOM     91  O   UNL     1      51.432  26.624 -25.750  1.00  0.00    -0.194 OA
BRANCH  89  92
ATOM     92  O   UNL     1      51.205  26.187 -24.424  1.00  0.00    -0.282 OA
ATOM     93  H   UNL     1      51.146  25.717 -24.023  1.00  0.00     0.234 HD
ENDBRANCH  89  92
ENDBRANCH  80  89
BRANCH  83  94
ATOM     94  S   UNL     1      53.381  29.565 -24.623  1.00  0.00     0.294 S 
ATOM     95  O   UNL     1      54.101  29.339 -23.966  1.00  0.00    -0.194 OA
ATOM     96  O   UNL     1      52.662  29.791 -25.280  1.00  0.00    -0.194 OA
BRANCH  94  97
ATOM     97  O   UNL     1      53.121  30.354 -24.066  1.00  0.00    -0.282 OA
ATOM     98  H   UNL     1      52.883  30.269 -23.500  1.00  0.00     0.234 HD
ENDBRANCH  94  97
ENDBRANCH  83  94
ENDBRANCH  72  74
ENDBRANCH  66  70
ENDBRANCH  61  63
ENDBRANCH  56  59
ENDBRANCH   3  53
TORSDOF 22
ENDMDL
MODEL 6
REMARK VINA RESULT:   -11.784      2.108      6.443
REMARK INTER + INTRA:          19.650
REMARK INTER:                 -25.232
REMARK INTRA:                  44.882
REMARK UNBOUND:                44.523
REMARK SMILES Cc1ccc(C(=O)Nc2ccc(S(=O)(=O)O)c3cc(S(=O)(=O)O)cc(S(=O)(=O)O)c23)cc1NC(=O)c1cccc(NC(=O)Nc2cccc(C(=O)Nc3cc(C(=O)Nc4ccc(S(=O)(=O)O)c5cc(S(=O)(=O)O)cc(S(=O)(=O)O)c45)ccc3C)c2)c1
REMARK SMILES IDX 43 1 41 2 44 3 42 4 40 7 36 8 86 9 37 10 38 11 39 12 34 13
REMARK SMILES IDX 33 14 35 16 32 17 5 18 31 19 4 20 3 21 2 22 1 23 6 24 8 25
REMARK SMILES IDX 7 27 9 28 25 29 30 30 24 31 17 32 19 33 12 34 18 35 10 36
REMARK SMILES IDX 11 37 26 38 27 39 28 40 29 41 20 43 21 44 22 45 23 46 13 48
REMARK SMILES IDX 14 49 15 50 16 51 45 53 85 54 46 55 49 56 47 57 48 58 50 59
REMARK SMILES IDX 51 60 52 61 53 63 54 64 83 65 55 66 82 67 84 68 81 69 56 70
REMARK SMILES IDX 57 71 58 72 59 74 80 75 60 76 67 77 75 78 61 79 62 80 68 81
REMARK SMILES IDX 74 82 69 83 76 84 77 85 78 86 79 87 63 89 64 90 65 91 66 92
REMARK SMILES IDX 70 94 71 95 72 96 73 97
REMARK H PARENT 41 5 44 6 33 15 8 26 29 42 23 47 16 52 52 62 58 73 79 88 66 93
REMARK H PARENT 73 98
REMARK Flexibility Score: inf
ROOT
ATOM      1  O   UNL     1      60.033  38.891 -30.201  1.00  0.00    -0.248 OA
ATOM      2  N   UNL     1      60.768  37.328 -30.332  1.00  0.00    -0.308 N 
ATOM      3  N   UNL     1      60.726  38.383 -31.705  1.00  0.00    -0.308 N 
ATOM      4  C   UNL     1      60.509  38.201 -30.746  1.00  0.00     0.323 C 
ATOM      5  H   UNL     1      61.063  36.900 -30.670  1.00  0.00     0.171 HD
ATOM      6  H   UNL     1      61.021  37.956 -32.043  1.00  0.00     0.171 HD
ENDROOT
BRANCH   2   7
ATOM      7  C   UNL     1      60.551  37.145 -29.374  1.00  0.00     0.043 A 
ATOM      8  C   UNL     1      59.384  36.824 -28.134  1.00  0.00     0.042 A 
ATOM      9  C   UNL     1      59.601  37.007 -29.093  1.00  0.00     0.040 A 
ATOM     10  C   UNL     1      60.117  36.779 -27.455  1.00  0.00     0.014 A 
ATOM     11  C   UNL     1      61.067  36.917 -27.736  1.00  0.00     0.003 A 
ATOM     12  C   UNL     1      61.284  37.100 -28.695  1.00  0.00     0.026 A 
BRANCH   8  13
ATOM     13  C   UNL     1      58.435  36.687 -27.854  1.00  0.00     0.255 C 
ATOM     14  N   UNL     1      58.012  37.308 -27.194  1.00  0.00    -0.322 N 
ATOM     15  H   UNL     1      58.339  37.779 -26.958  1.00  0.00     0.170 HD
ATOM     16  O   UNL     1      57.907  35.927 -28.235  1.00  0.00    -0.269 OA
BRANCH  14  17
ATOM     17  C   UNL     1      57.062  37.169 -26.915  1.00  0.00     0.045 A 
ATOM     18  C   UNL     1      55.422  36.783 -27.315  1.00  0.00     0.042 A 
ATOM     19  C   UNL     1      56.372  36.921 -27.594  1.00  0.00     0.040 A 
ATOM     20  C   UNL     1      55.162  36.893 -26.355  1.00  0.00     0.014 A 
ATOM     21  C   UNL     1      55.852  37.142 -25.676  1.00  0.00     0.006 A 
ATOM     22  C   UNL     1      56.802  37.280 -25.955  1.00  0.00    -0.027 A 
ATOM     23  C   UNL     1      57.492  37.528 -25.276  1.00  0.00     0.046 C 
BRANCH  18  24
ATOM     24  C   UNL     1      54.731  36.534 -27.994  1.00  0.00     0.255 C 
ATOM     25  N   UNL     1      54.506  35.572 -28.148  1.00  0.00    -0.321 N 
ATOM     26  H   UNL     1      54.793  35.130 -27.822  1.00  0.00     0.170 HD
ATOM     27  O   UNL     1      54.268  37.247 -28.520  1.00  0.00    -0.269 OA
BRANCH  25  28
ATOM     28  C   UNL     1      53.815  35.323 -28.828  1.00  0.00     0.050 A 
ATOM     29  C   UNL     1      52.157  34.996 -28.337  1.00  0.00     0.105 A 
ATOM     30  C   UNL     1      52.836  35.062 -29.069  1.00  0.00     0.028 A 
ATOM     31  C   UNL     1      51.213  34.747 -28.553  1.00  0.00     0.046 A 
ATOM     32  C   UNL     1      52.571  34.880 -30.015  1.00  0.00     0.008 A 
ATOM     33  C   UNL     1      50.948  34.564 -29.500  1.00  0.00     0.096 A 
ATOM     34  C   UNL     1      53.267  34.945 -30.787  1.00  0.00     0.102 A 
ATOM     35  C   UNL     1      51.627  34.631 -30.230  1.00  0.00     0.033 A 
ATOM     36  C   UNL     1      54.528  35.394 -29.584  1.00  0.00     0.028 A 
ATOM     37  C   UNL     1      54.253  35.204 -30.570  1.00  0.00     0.025 A 
BRANCH  29  38
ATOM     38  S   UNL     1      51.918  35.064 -27.368  1.00  0.00     0.295 S 
ATOM     39  O   UNL     1      52.119  34.090 -27.252  1.00  0.00    -0.194 OA
ATOM     40  O   UNL     1      51.717  36.036 -27.485  1.00  0.00    -0.194 OA
BRANCH  38  41
ATOM     41  O   UNL     1      51.679  35.131 -26.399  1.00  0.00    -0.282 OA
ATOM     42  H   UNL     1      51.616  35.687 -26.134  1.00  0.00     0.234 HD
ENDBRANCH  38  41
ENDBRANCH  29  38
BRANCH  33  43
ATOM     43  S   UNL     1      50.004  34.315 -29.715  1.00  0.00     0.294 S 
ATOM     44  O   UNL     1      49.718  35.261 -29.561  1.00  0.00    -0.194 OA
ATOM     45  O   UNL     1      50.289  33.369 -29.869  1.00  0.00    -0.194 OA
BRANCH  43  46
ATOM     46  O   UNL     1      49.060  34.065 -29.930  1.00  0.00    -0.282 OA
ATOM     47  H   UNL     1      48.881  33.472 -29.903  1.00  0.00     0.234 HD
ENDBRANCH  43  46
ENDBRANCH  33  43
BRANCH  34  48
ATOM     48  S   UNL     1      52.991  34.760 -31.730  1.00  0.00     0.295 S 
ATOM     49  O   UNL     1      52.709  35.714 -31.835  1.00  0.00    -0.194 OA
ATOM     50  O   UNL     1      53.273  33.806 -31.627  1.00  0.00    -0.194 OA
BRANCH  48  51
ATOM     51  O   UNL     1      52.715  34.576 -32.673  1.00  0.00    -0.282 OA
ATOM     52  H   UNL     1      52.247  34.893 -32.927  1.00  0.00     0.234 HD
ENDBRANCH  48  51
ENDBRANCH  34  48
ENDBRANCH  25  28
ENDBRANCH  18  24
ENDBRANCH  14  17
ENDBRANCH   8  13
ENDBRANCH   2   7
BRANCH   3  53
ATOM     53  C   UNL     1      60.467  39.256 -32.119  1.00  0.00     0.043 A 
ATOM     54  C   UNL     1      59.515  39.428 -32.370  1.00  0.00     0.040 A 
ATOM     55  C   UNL     1      61.162  39.958 -32.281  1.00  0.00     0.026 A 
ATOM     56  C   UNL     1      59.257  40.301 -32.783  1.00  0.00     0.042 A 
ATOM     57  C   UNL     1      60.904  40.831 -32.694  1.00  0.00     0.003 A 
ATOM     58  C   UNL     1      59.951  41.003 -32.945  1.00  0.00     0.014 A 
BRANCH  56  59
ATOM     59  C   UNL     1      58.304  40.473 -33.034  1.00  0.00     0.255 C 
ATOM     60  O   UNL     1      57.571  40.268 -32.385  1.00  0.00    -0.269 OA
ATOM     61  N   UNL     1      58.084  40.851 -33.933  1.00  0.00    -0.322 N 
ATOM     62  H   UNL     1      58.539  40.978 -34.336  1.00  0.00     0.170 HD
BRANCH  61  63
ATOM     63  C   UNL     1      57.131  41.023 -34.184  1.00  0.00     0.045 A 
ATOM     64  C   UNL     1      56.470  41.290 -33.484  1.00  0.00     0.040 A 
ATOM     65  C   UNL     1      56.840  40.927 -35.136  1.00  0.00    -0.027 A 
ATOM     66  C   UNL     1      55.517  41.462 -33.735  1.00  0.00     0.042 A 
ATOM     67  C   UNL     1      55.887  41.099 -35.387  1.00  0.00     0.006 A 
ATOM     68  C   UNL     1      57.502  40.659 -35.837  1.00  0.00     0.046 C 
ATOM     69  C   UNL     1      55.226  41.366 -34.686  1.00  0.00     0.014 A 
BRANCH  66  70
ATOM     70  C   UNL     1      54.856  41.730 -33.034  1.00  0.00     0.255 C 
ATOM     71  O   UNL     1      54.456  42.646 -33.047  1.00  0.00    -0.269 OA
ATOM     72  N   UNL     1      54.595  41.081 -32.319  1.00  0.00    -0.321 N 
ATOM     73  H   UNL     1      54.976  40.656 -32.566  1.00  0.00     0.170 HD
BRANCH  72  74
ATOM     74  C   UNL     1      53.934  41.348 -31.618  1.00  0.00     0.050 A 
ATOM     75  C   UNL     1      53.266  40.647 -31.233  1.00  0.00     0.028 A 
ATOM     76  C   UNL     1      53.910  42.328 -31.267  1.00  0.00     0.028 A 
ATOM     77  C   UNL     1      52.602  40.903 -30.532  1.00  0.00     0.008 A 
ATOM     78  C   UNL     1      53.296  39.708 -31.575  1.00  0.00     0.105 A 
ATOM     79  C   UNL     1      53.218  42.595 -30.536  1.00  0.00     0.025 A 
ATOM     80  C   UNL     1      52.559  41.878 -30.166  1.00  0.00     0.102 A 
ATOM     81  C   UNL     1      51.966  40.221 -30.172  1.00  0.00     0.033 A 
ATOM     82  C   UNL     1      52.660  39.025 -31.215  1.00  0.00     0.046 A 
ATOM     83  C   UNL     1      51.996  39.281 -30.513  1.00  0.00     0.096 A 
BRANCH  78  84
ATOM     84  S   UNL     1      53.697  39.017 -32.177  1.00  0.00     0.295 S 
ATOM     85  O   UNL     1      54.097  38.327 -32.780  1.00  0.00    -0.194 OA
ATOM     86  O   UNL     1      54.407  38.837 -31.497  1.00  0.00    -0.194 OA
BRANCH  84  87
ATOM     87  O   UNL     1      52.986  39.198 -32.857  1.00  0.00    -0.282 OA
ATOM     88  H   UNL     1      53.135  39.454 -33.401  1.00  0.00     0.234 HD
ENDBRANCH  84  87
ENDBRANCH  78  84
BRANCH  80  89
ATOM     89  S   UNL     1      51.890  42.124 -29.464  1.00  0.00     0.295 S 
ATOM     90  O   UNL     1      52.505  41.777 -28.756  1.00  0.00    -0.194 OA
ATOM     91  O   UNL     1      51.276  42.471 -30.173  1.00  0.00    -0.194 OA
BRANCH  89  92
ATOM     92  O   UNL     1      51.221  42.371 -28.763  1.00  0.00    -0.282 OA
ATOM     93  H   UNL     1      51.033  42.959 -28.708  1.00  0.00     0.234 HD
ENDBRANCH  89  92
ENDBRANCH  80  89
BRANCH  83  94
ATOM     94  S   UNL     1      51.360  38.598 -30.153  1.00  0.00     0.294 S 
ATOM     95  O   UNL     1      50.775  38.720 -30.955  1.00  0.00    -0.194 OA
ATOM     96  O   UNL     1      51.945  38.476 -29.352  1.00  0.00    -0.194 OA
BRANCH  94  97
ATOM     97  O   UNL     1      50.725  37.915 -29.793  1.00  0.00    -0.282 OA
ATOM     98  H   UNL     1      50.620  37.392 -30.109  1.00  0.00     0.234 HD
ENDBRANCH  94  97
ENDBRANCH  83  94
ENDBRANCH  72  74
ENDBRANCH  66  70
ENDBRANCH  61  63
ENDBRANCH  56  59
ENDBRANCH   3  53
TORSDOF 22
ENDMDL
MODEL 7
REMARK VINA RESULT:   -11.725      1.127      2.108
REMARK INTER + INTRA:          19.774
REMARK INTER:                 -26.729
REMARK INTRA:                  46.503
REMARK UNBOUND:                44.523
REMARK SMILES Cc1ccc(C(=O)Nc2ccc(S(=O)(=O)O)c3cc(S(=O)(=O)O)cc(S(=O)(=O)O)c23)cc1NC(=O)c1cccc(NC(=O)Nc2cccc(C(=O)Nc3cc(C(=O)Nc4ccc(S(=O)(=O)O)c5cc(S(=O)(=O)O)cc(S(=O)(=O)O)c45)ccc3C)c2)c1
REMARK SMILES IDX 43 1 41 2 44 3 42 4 40 7 36 8 86 9 37 10 38 11 39 12 34 13
REMARK SMILES IDX 33 14 35 16 32 17 5 18 31 19 4 20 3 21 2 22 1 23 6 24 8 25
REMARK SMILES IDX 7 27 9 28 25 29 30 30 24 31 17 32 19 33 12 34 18 35 10 36
REMARK SMILES IDX 11 37 26 38 27 39 28 40 29 41 20 43 21 44 22 45 23 46 13 48
REMARK SMILES IDX 14 49 15 50 16 51 45 53 85 54 46 55 49 56 47 57 48 58 50 59
REMARK SMILES IDX 51 60 52 61 53 63 54 64 83 65 55 66 82 67 84 68 81 69 56 70
REMARK SMILES IDX 57 71 58 72 59 74 80 75 60 76 67 77 75 78 61 79 62 80 68 81
REMARK SMILES IDX 74 82 69 83 76 84 77 85 78 86 79 87 63 89 64 90 65 91 66 92
REMARK SMILES IDX 70 94 71 95 72 96 73 97
REMARK H PARENT 41 5 44 6 33 15 8 26 29 42 23 47 16 52 52 62 58 73 79 88 66 93
REMARK H PARENT 73 98
REMARK Flexibility Score: inf
ROOT
ATOM      1  O   UNL     1      57.071  40.465 -32.663  1.00  0.00    -0.248 OA
ATOM      2  N   UNL     1      56.768  42.162 -32.497  1.00  0.00    -0.308 N 
ATOM      3  N   UNL     1      58.295  41.503 -32.010  1.00  0.00    -0.308 N 
ATOM      4  C   UNL     1      57.378  41.377 -32.390  1.00  0.00     0.323 C 
ATOM      5  H   UNL     1      56.959  42.727 -32.327  1.00  0.00     0.171 HD
ATOM      6  H   UNL     1      58.485  42.068 -31.841  1.00  0.00     0.171 HD
ENDROOT
BRANCH   2   7
ATOM      7  C   UNL     1      55.852  42.036 -32.876  1.00  0.00     0.043 A 
ATOM      8  C   UNL     1      54.253  41.380 -32.753  1.00  0.00     0.042 A 
ATOM      9  C   UNL     1      55.170  41.506 -32.373  1.00  0.00     0.040 A 
ATOM     10  C   UNL     1      54.019  41.785 -33.637  1.00  0.00     0.014 A 
ATOM     11  C   UNL     1      54.701  42.316 -34.140  1.00  0.00     0.003 A 
ATOM     12  C   UNL     1      55.618  42.441 -33.760  1.00  0.00     0.026 A 
BRANCH   8  13
ATOM     13  C   UNL     1      53.572  40.850 -32.250  1.00  0.00     0.255 C 
ATOM     14  N   UNL     1      53.206  41.197 -31.386  1.00  0.00    -0.322 N 
ATOM     15  H   UNL     1      53.402  41.742 -31.162  1.00  0.00     0.170 HD
ATOM     16  O   UNL     1      53.257  39.972 -32.610  1.00  0.00    -0.269 OA
BRANCH  14  17
ATOM     17  C   UNL     1      52.525  40.666 -30.883  1.00  0.00     0.045 A 
ATOM     18  C   UNL     1      52.038  39.190 -30.118  1.00  0.00     0.042 A 
ATOM     19  C   UNL     1      52.720  39.721 -30.621  1.00  0.00     0.040 A 
ATOM     20  C   UNL     1      51.161  39.604 -29.876  1.00  0.00     0.014 A 
ATOM     21  C   UNL     1      50.966  40.550 -30.137  1.00  0.00     0.006 A 
ATOM     22  C   UNL     1      51.647  41.081 -30.641  1.00  0.00    -0.027 A 
ATOM     23  C   UNL     1      51.452  42.026 -30.902  1.00  0.00     0.046 C 
BRANCH  18  24
ATOM     24  C   UNL     1      52.234  38.245 -29.857  1.00  0.00     0.255 C 
ATOM     25  N   UNL     1      51.689  37.498 -30.238  1.00  0.00    -0.321 N 
ATOM     26  H   UNL     1      51.229  37.621 -30.635  1.00  0.00     0.170 HD
ATOM     27  O   UNL     1      52.975  38.046 -29.215  1.00  0.00    -0.269 OA
BRANCH  25  28
ATOM     28  C   UNL     1      51.884  36.553 -29.976  1.00  0.00     0.050 A 
ATOM     29  C   UNL     1      52.918  35.545 -30.983  1.00  0.00     0.105 A 
ATOM     30  C   UNL     1      52.354  35.642 -30.163  1.00  0.00     0.028 A 
ATOM     31  C   UNL     1      53.375  34.675 -31.175  1.00  0.00     0.046 A 
ATOM     32  C   UNL     1      52.247  34.871 -29.535  1.00  0.00     0.008 A 
ATOM     33  C   UNL     1      53.268  33.905 -30.547  1.00  0.00     0.096 A 
ATOM     34  C   UNL     1      51.663  34.958 -28.677  1.00  0.00     0.102 A 
ATOM     35  C   UNL     1      52.704  34.003 -29.727  1.00  0.00     0.033 A 
ATOM     36  C   UNL     1      51.295  36.662 -29.124  1.00  0.00     0.028 A 
ATOM     37  C   UNL     1      51.184  35.859 -28.470  1.00  0.00     0.025 A 
BRANCH  29  38
ATOM     38  S   UNL     1      53.305  35.933 -31.819  1.00  0.00     0.295 S 
ATOM     39  O   UNL     1      52.493  35.647 -32.328  1.00  0.00    -0.194 OA
ATOM     40  O   UNL     1      54.117  36.219 -31.310  1.00  0.00    -0.194 OA
BRANCH  38  41
ATOM     41  O   UNL     1      53.693  36.322 -32.655  1.00  0.00    -0.282 OA
ATOM     42  H   UNL     1      53.710  36.937 -32.732  1.00  0.00     0.234 HD
ENDBRANCH  38  41
ENDBRANCH  29  38
BRANCH  33  43
ATOM     43  S   UNL     1      53.725  33.037 -30.739  1.00  0.00     0.294 S 
ATOM     44  O   UNL     1      52.890  32.690 -31.165  1.00  0.00    -0.194 OA
ATOM     45  O   UNL     1      54.561  33.384 -30.314  1.00  0.00    -0.194 OA
BRANCH  43  46
ATOM     46  O   UNL     1      54.183  32.169 -30.931  1.00  0.00    -0.282 OA
ATOM     47  H   UNL     1      54.674  32.154 -31.310  1.00  0.00     0.234 HD
ENDBRANCH  43  46
ENDBRANCH  33  43
BRANCH  34  48
ATOM     48  S   UNL     1      51.563  34.180 -28.056  1.00  0.00     0.295 S 
ATOM     49  O   UNL     1      50.797  33.842 -28.602  1.00  0.00    -0.194 OA
ATOM     50  O   UNL     1      52.329  34.518 -27.509  1.00  0.00    -0.194 OA
BRANCH  48  51
ATOM     51  O   UNL     1      51.463  33.402 -27.435  1.00  0.00    -0.282 OA
ATOM     52  H   UNL     1      51.555  33.477 -26.827  1.00  0.00     0.234 HD
ENDBRANCH  48  51
ENDBRANCH  34  48
ENDBRANCH  25  28
ENDBRANCH  18  24
ENDBRANCH  14  17
ENDBRANCH   8  13
ENDBRANCH   2   7
BRANCH   3  53
ATOM     53  C   UNL     1      58.904  40.717 -31.904  1.00  0.00     0.043 A 
ATOM     54  C   UNL     1      58.743  40.054 -31.173  1.00  0.00     0.040 A 
ATOM     55  C   UNL     1      59.674  40.594 -32.530  1.00  0.00     0.026 A 
ATOM     56  C   UNL     1      59.353  39.269 -31.067  1.00  0.00     0.042 A 
ATOM     57  C   UNL     1      60.284  39.808 -32.424  1.00  0.00     0.003 A 
ATOM     58  C   UNL     1      60.123  39.146 -31.693  1.00  0.00     0.014 A 
BRANCH  56  59
ATOM     59  C   UNL     1      59.192  38.606 -30.336  1.00  0.00     0.255 C 
ATOM     60  O   UNL     1      58.487  37.905 -30.442  1.00  0.00    -0.269 OA
ATOM     61  N   UNL     1      59.736  38.644 -29.497  1.00  0.00    -0.322 N 
ATOM     62  H   UNL     1      60.173  39.079 -29.431  1.00  0.00     0.170 HD
BRANCH  61  63
ATOM     63  C   UNL     1      59.575  37.981 -28.766  1.00  0.00     0.045 A 
ATOM     64  C   UNL     1      58.653  37.851 -28.403  1.00  0.00     0.040 A 
ATOM     65  C   UNL     1      60.337  37.448 -28.398  1.00  0.00    -0.027 A 
ATOM     66  C   UNL     1      58.492  37.188 -27.671  1.00  0.00     0.042 A 
ATOM     67  C   UNL     1      60.176  36.785 -27.667  1.00  0.00     0.006 A 
ATOM     68  C   UNL     1      61.260  37.578 -28.761  1.00  0.00     0.046 C 
ATOM     69  C   UNL     1      59.253  36.656 -27.304  1.00  0.00     0.014 A 
BRANCH  66  70
ATOM     70  C   UNL     1      57.569  37.058 -27.308  1.00  0.00     0.255 C 
ATOM     71  O   UNL     1      56.888  36.555 -27.841  1.00  0.00    -0.269 OA
ATOM     72  N   UNL     1      57.327  37.433 -26.413  1.00  0.00    -0.321 N 
ATOM     73  H   UNL     1      57.902  37.660 -26.353  1.00  0.00     0.170 HD
BRANCH  72  74
ATOM     74  C   UNL     1      56.404  37.304 -26.050  1.00  0.00     0.050 A 
ATOM     75  C   UNL     1      56.225  37.400 -25.028  1.00  0.00     0.028 A 
ATOM     76  C   UNL     1      55.616  37.071 -26.690  1.00  0.00     0.028 A 
ATOM     77  C   UNL     1      55.306  37.273 -24.655  1.00  0.00     0.008 A 
ATOM     78  C   UNL     1      56.986  37.623 -24.420  1.00  0.00     0.105 A 
ATOM     79  C   UNL     1      54.660  36.939 -26.301  1.00  0.00     0.025 A 
ATOM     80  C   UNL     1      54.503  37.041 -25.276  1.00  0.00     0.102 A 
ATOM     81  C   UNL     1      55.149  37.369 -23.672  1.00  0.00     0.033 A 
ATOM     82  C   UNL     1      56.829  37.719 -23.437  1.00  0.00     0.046 A 
ATOM     83  C   UNL     1      55.910  37.592 -23.063  1.00  0.00     0.096 A 
BRANCH  78  84
ATOM     84  S   UNL     1      57.956  37.826 -24.284  1.00  0.00     0.295 S 
ATOM     85  O   UNL     1      58.926  38.028 -24.148  1.00  0.00    -0.194 OA
ATOM     86  O   UNL     1      58.143  36.850 -24.166  1.00  0.00    -0.194 OA
BRANCH  84  87
ATOM     87  O   UNL     1      57.769  38.801 -24.401  1.00  0.00    -0.282 OA
ATOM     88  H   UNL     1      58.028  39.112 -24.871  1.00  0.00     0.234 HD
ENDBRANCH  84  87
ENDBRANCH  78  84
BRANCH  80  89
ATOM     89  S   UNL     1      53.588  36.916 -24.892  1.00  0.00     0.295 S 
ATOM     90  O   UNL     1      53.454  37.907 -24.887  1.00  0.00    -0.194 OA
ATOM     91  O   UNL     1      53.723  35.925 -24.898  1.00  0.00    -0.194 OA
BRANCH  89  92
ATOM     92  O   UNL     1      52.674  36.789 -24.508  1.00  0.00    -0.282 OA
ATOM     93  H   UNL     1      52.177  36.996 -24.818  1.00  0.00     0.234 HD
ENDBRANCH  89  92
ENDBRANCH  80  89
BRANCH  83  94
ATOM     94  S   UNL     1      55.752  37.688 -22.080  1.00  0.00     0.294 S 
ATOM     95  O   UNL     1      55.815  36.696 -21.973  1.00  0.00    -0.194 OA
ATOM     96  O   UNL     1      55.690  38.681 -22.187  1.00  0.00    -0.194 OA
BRANCH  94  97
ATOM     97  O   UNL     1      55.595  37.784 -21.097  1.00  0.00    -0.282 OA
ATOM     98  H   UNL     1      55.338  38.302 -20.874  1.00  0.00     0.234 HD
ENDBRANCH  94  97
ENDBRANCH  83  94
ENDBRANCH  72  74
ENDBRANCH  66  70
ENDBRANCH  61  63
ENDBRANCH  56  59
ENDBRANCH   3  53
TORSDOF 22
ENDMDL
MODEL 8
REMARK VINA RESULT:   -11.706      2.568      6.142
REMARK INTER + INTRA:          19.814
REMARK INTER:                 -24.426
REMARK INTRA:                  44.240
REMARK UNBOUND:                44.523
REMARK SMILES Cc1ccc(C(=O)Nc2ccc(S(=O)(=O)O)c3cc(S(=O)(=O)O)cc(S(=O)(=O)O)c23)cc1NC(=O)c1cccc(NC(=O)Nc2cccc(C(=O)Nc3cc(C(=O)Nc4ccc(S(=O)(=O)O)c5cc(S(=O)(=O)O)cc(S(=O)(=O)O)c45)ccc3C)c2)c1
REMARK SMILES IDX 43 1 41 2 44 3 42 4 40 7 36 8 86 9 37 10 38 11 39 12 34 13
REMARK SMILES IDX 33 14 35 16 32 17 5 18 31 19 4 20 3 21 2 22 1 23 6 24 8 25
REMARK SMILES IDX 7 27 9 28 25 29 30 30 24 31 17 32 19 33 12 34 18 35 10 36
REMARK SMILES IDX 11 37 26 38 27 39 28 40 29 41 20 43 21 44 22 45 23 46 13 48
REMARK SMILES IDX 14 49 15 50 16 51 45 53 85 54 46 55 49 56 47 57 48 58 50 59
REMARK SMILES IDX 51 60 52 61 53 63 54 64 83 65 55 66 82 67 84 68 81 69 56 70
REMARK SMILES IDX 57 71 58 72 59 74 80 75 60 76 67 77 75 78 61 79 62 80 68 81
REMARK SMILES IDX 74 82 69 83 76 84 77 85 78 86 79 87 63 89 64 90 65 91 66 92
REMARK SMILES IDX 70 94 71 95 72 96 73 97
REMARK H PARENT 41 5 44 6 33 15 8 26 29 42 23 47 16 52 52 62 58 73 79 88 66 93
REMARK H PARENT 73 98
REMARK Flexibility Score: inf
ROOT
ATOM      1  O   UNL     1      55.103  41.767 -31.427  1.00  0.00    -0.248 OA
ATOM      2  N   UNL     1      54.985  43.323 -30.676  1.00  0.00    -0.308 N 
ATOM      3  N   UNL     1      53.688  42.185 -30.519  1.00  0.00    -0.308 N 
ATOM      4  C   UNL     1      54.592  42.425 -30.874  1.00  0.00     0.323 C 
ATOM      5  H   UNL     1      54.668  43.731 -30.332  1.00  0.00     0.171 HD
ATOM      6  H   UNL     1      53.372  42.593 -30.176  1.00  0.00     0.171 HD
ENDROOT
BRANCH   2   7
ATOM      7  C   UNL     1      55.888  43.563 -31.030  1.00  0.00     0.043 A 
ATOM      8  C   UNL     1      57.612  43.389 -30.989  1.00  0.00     0.042 A 
ATOM      9  C   UNL     1      56.708  43.149 -30.634  1.00  0.00     0.040 A 
ATOM     10  C   UNL     1      57.696  44.044 -31.740  1.00  0.00     0.014 A 
ATOM     11  C   UNL     1      56.876  44.458 -32.136  1.00  0.00     0.003 A 
ATOM     12  C   UNL     1      55.973  44.218 -31.781  1.00  0.00     0.026 A 
BRANCH   8  13
ATOM     13  C   UNL     1      58.430  42.975 -30.593  1.00  0.00     0.255 C 
ATOM     14  N   UNL     1      58.690  43.184 -29.650  1.00  0.00    -0.322 N 
ATOM     15  H   UNL     1      58.345  43.571 -29.311  1.00  0.00     0.170 HD
ATOM     16  O   UNL     1      58.989  42.351 -31.139  1.00  0.00    -0.269 OA
BRANCH  14  17
ATOM     17  C   UNL     1      59.510  42.769 -29.254  1.00  0.00     0.045 A 
ATOM     18  C   UNL     1      60.462  41.364 -28.908  1.00  0.00     0.042 A 
ATOM     19  C   UNL     1      59.643  41.780 -29.304  1.00  0.00     0.040 A 
ATOM     20  C   UNL     1      61.148  41.939 -28.462  1.00  0.00     0.014 A 
ATOM     21  C   UNL     1      61.015  42.929 -28.412  1.00  0.00     0.006 A 
ATOM     22  C   UNL     1      60.196  43.344 -28.808  1.00  0.00    -0.027 A 
ATOM     23  C   UNL     1      60.062  44.334 -28.759  1.00  0.00     0.046 C 
BRANCH  18  24
ATOM     24  C   UNL     1      60.596  40.374 -28.958  1.00  0.00     0.255 C 
ATOM     25  N   UNL     1      60.051  39.767 -28.380  1.00  0.00    -0.321 N 
ATOM     26  H   UNL     1      59.631  40.004 -27.991  1.00  0.00     0.170 HD
ATOM     27  O   UNL     1      61.273  39.992 -29.586  1.00  0.00    -0.269 OA
BRANCH  25  28
ATOM     28  C   UNL     1      60.184  38.777 -28.430  1.00  0.00     0.050 A 
ATOM     29  C   UNL     1      59.191  37.797 -29.503  1.00  0.00     0.105 A 
ATOM     30  C   UNL     1      59.926  37.849 -28.826  1.00  0.00     0.028 A 
ATOM     31  C   UNL     1      58.933  36.912 -29.892  1.00  0.00     0.046 A 
ATOM     32  C   UNL     1      60.400  37.017 -28.537  1.00  0.00     0.008 A 
ATOM     33  C   UNL     1      59.408  36.080 -29.603  1.00  0.00     0.096 A 
ATOM     34  C   UNL     1      61.166  37.057 -27.833  1.00  0.00     0.102 A 
ATOM     35  C   UNL     1      60.141  36.134 -28.926  1.00  0.00     0.033 A 
ATOM     36  C   UNL     1      60.947  38.840 -27.724  1.00  0.00     0.028 A 
ATOM     37  C   UNL     1      61.442  37.974 -27.424  1.00  0.00     0.025 A 
BRANCH  29  38
ATOM     38  S   UNL     1      58.493  38.246 -30.061  1.00  0.00     0.295 S 
ATOM     39  O   UNL     1      57.860  38.220 -29.287  1.00  0.00    -0.194 OA
ATOM     40  O   UNL     1      59.127  38.272 -30.834  1.00  0.00    -0.194 OA
BRANCH  38  41
ATOM     41  O   UNL     1      57.796  38.696 -30.618  1.00  0.00    -0.282 OA
ATOM     42  H   UNL     1      57.855  38.713 -31.235  1.00  0.00     0.234 HD
ENDBRANCH  38  41
ENDBRANCH  29  38
BRANCH  33  43
ATOM     43  S   UNL     1      59.148  35.197 -29.992  1.00  0.00     0.294 S 
ATOM     44  O   UNL     1      58.503  35.055 -29.242  1.00  0.00    -0.194 OA
ATOM     45  O   UNL     1      59.794  35.339 -30.743  1.00  0.00    -0.194 OA
BRANCH  43  46
ATOM     46  O   UNL     1      58.889  34.313 -30.382  1.00  0.00    -0.282 OA
ATOM     47  H   UNL     1      58.727  33.845 -30.010  1.00  0.00     0.234 HD
ENDBRANCH  43  46
ENDBRANCH  33  43
BRANCH  34  48
ATOM     48  S   UNL     1      61.634  36.219 -27.552  1.00  0.00     0.295 S 
ATOM     49  O   UNL     1      62.281  36.327 -28.307  1.00  0.00    -0.194 OA
ATOM     50  O   UNL     1      60.989  36.111 -26.796  1.00  0.00    -0.194 OA
BRANCH  48  51
ATOM     51  O   UNL     1      62.103  35.381 -27.271  1.00  0.00    -0.282 OA
ATOM     52  H   UNL     1      61.873  35.036 -26.811  1.00  0.00     0.234 HD
ENDBRANCH  48  51
ENDBRANCH  34  48
ENDBRANCH  25  28
ENDBRANCH  18  24
ENDBRANCH  14  17
ENDBRANCH   8  13
ENDBRANCH   2   7
BRANCH   3  53
ATOM     53  C   UNL     1      53.296  41.287 -30.718  1.00  0.00     0.043 A 
ATOM     54  C   UNL     1      53.603  40.483 -30.210  1.00  0.00     0.040 A 
ATOM     55  C   UNL     1      52.595  41.194 -31.426  1.00  0.00     0.026 A 
ATOM     56  C   UNL     1      53.210  39.585 -30.410  1.00  0.00     0.042 A 
ATOM     57  C   UNL     1      52.202  40.296 -31.625  1.00  0.00     0.003 A 
ATOM     58  C   UNL     1      52.509  39.492 -31.117  1.00  0.00     0.014 A 
BRANCH  56  59
ATOM     59  C   UNL     1      53.518  38.781 -29.902  1.00  0.00     0.255 C 
ATOM     60  O   UNL     1      54.398  38.359 -30.119  1.00  0.00    -0.269 OA
ATOM     61  N   UNL     1      52.946  38.398 -29.176  1.00  0.00    -0.322 N 
ATOM     62  H   UNL     1      52.399  38.660 -29.041  1.00  0.00     0.170 HD
BRANCH  61  63
ATOM     63  C   UNL     1      53.253  37.594 -28.668  1.00  0.00     0.045 A 
ATOM     64  C   UNL     1      54.119  37.618 -28.168  1.00  0.00     0.040 A 
ATOM     65  C   UNL     1      52.695  36.764 -28.660  1.00  0.00    -0.027 A 
ATOM     66  C   UNL     1      54.427  36.814 -27.660  1.00  0.00     0.042 A 
ATOM     67  C   UNL     1      53.002  35.960 -28.152  1.00  0.00     0.006 A 
ATOM     68  C   UNL     1      51.829  36.739 -29.160  1.00  0.00     0.046 C 
ATOM     69  C   UNL     1      53.868  35.985 -27.652  1.00  0.00     0.014 A 
BRANCH  66  70
ATOM     70  C   UNL     1      55.293  36.839 -27.161  1.00  0.00     0.255 C 
ATOM     71  O   UNL     1      56.091  36.355 -27.518  1.00  0.00    -0.269 OA
ATOM     72  N   UNL     1      55.360  37.350 -26.303  1.00  0.00    -0.321 N 
ATOM     73  H   UNL     1      54.763  37.514 -26.354  1.00  0.00     0.170 HD
BRANCH  72  74
ATOM     74  C   UNL     1      56.226  37.376 -25.803  1.00  0.00     0.050 A 
ATOM     75  C   UNL     1      56.229  37.466 -24.766  1.00  0.00     0.028 A 
ATOM     76  C   UNL     1      57.130  37.313 -26.317  1.00  0.00     0.028 A 
ATOM     77  C   UNL     1      57.089  37.493 -24.256  1.00  0.00     0.008 A 
ATOM     78  C   UNL     1      55.357  37.525 -24.279  1.00  0.00     0.105 A 
ATOM     79  C   UNL     1      58.025  37.341 -25.786  1.00  0.00     0.025 A 
ATOM     80  C   UNL     1      58.005  37.432 -24.749  1.00  0.00     0.102 A 
ATOM     81  C   UNL     1      57.077  37.579 -23.260  1.00  0.00     0.033 A 
ATOM     82  C   UNL     1      55.346  37.612 -23.283  1.00  0.00     0.046 A 
ATOM     83  C   UNL     1      56.206  37.639 -22.773  1.00  0.00     0.096 A 
BRANCH  78  84
ATOM     84  S   UNL     1      54.358  37.544 -24.293  1.00  0.00     0.295 S 
ATOM     85  O   UNL     1      53.358  37.563 -24.306  1.00  0.00    -0.194 OA
ATOM     86  O   UNL     1      54.378  38.529 -24.461  1.00  0.00    -0.194 OA
BRANCH  84  87
ATOM     87  O   UNL     1      54.337  36.558 -24.124  1.00  0.00    -0.282 OA
ATOM     88  H   UNL     1      53.911  36.205 -24.404  1.00  0.00     0.234 HD
ENDBRANCH  84  87
ENDBRANCH  78  84
BRANCH  80  89
ATOM     89  S   UNL     1      58.859  37.460 -24.230  1.00  0.00     0.295 S 
ATOM     90  O   UNL     1      58.783  36.479 -24.050  1.00  0.00    -0.194 OA
ATOM     91  O   UNL     1      58.935  38.440 -24.409  1.00  0.00    -0.194 OA
BRANCH  89  92
ATOM     92  O   UNL     1      59.714  37.489 -23.711  1.00  0.00    -0.282 OA
ATOM     93  H   UNL     1      60.100  37.969 -23.777  1.00  0.00     0.234 HD
ENDBRANCH  89  92
ENDBRANCH  80  89
BRANCH  83  94
ATOM     94  S   UNL     1      56.194  37.725 -21.777  1.00  0.00     0.294 S 
ATOM     95  O   UNL     1      56.398  38.701 -21.860  1.00  0.00    -0.194 OA
ATOM     96  O   UNL     1      55.990  36.750 -21.695  1.00  0.00    -0.194 OA
BRANCH  94  97
ATOM     97  O   UNL     1      56.182  37.812 -20.781  1.00  0.00    -0.282 OA
ATOM     98  H   UNL     1      55.968  38.330 -20.517  1.00  0.00     0.234 HD
ENDBRANCH  94  97
ENDBRANCH  83  94
ENDBRANCH  72  74
ENDBRANCH  66  70
ENDBRANCH  61  63
ENDBRANCH  56  59
ENDBRANCH   3  53
TORSDOF 22
ENDMDL
MODEL 9
REMARK VINA RESULT:   -11.683      5.990      9.624
REMARK INTER + INTRA:          19.863
REMARK INTER:                 -28.691
REMARK INTRA:                  48.554
REMARK UNBOUND:                44.523
REMARK SMILES Cc1ccc(C(=O)Nc2ccc(S(=O)(=O)O)c3cc(S(=O)(=O)O)cc(S(=O)(=O)O)c23)cc1NC(=O)c1cccc(NC(=O)Nc2cccc(C(=O)Nc3cc(C(=O)Nc4ccc(S(=O)(=O)O)c5cc(S(=O)(=O)O)cc(S(=O)(=O)O)c45)ccc3C)c2)c1
REMARK SMILES IDX 43 1 41 2 44 3 42 4 40 7 36 8 86 9 37 10 38 11 39 12 34 13
REMARK SMILES IDX 33 14 35 16 32 17 5 18 31 19 4 20 3 21 2 22 1 23 6 24 8 25
REMARK SMILES IDX 7 27 9 28 25 29 30 30 24 31 17 32 19 33 12 34 18 35 10 36
REMARK SMILES IDX 11 37 26 38 27 39 28 40 29 41 20 43 21 44 22 45 23 46 13 48
REMARK SMILES IDX 14 49 15 50 16 51 45 53 85 54 46 55 49 56 47 57 48 58 50 59
REMARK SMILES IDX 51 60 52 61 53 63 54 64 83 65 55 66 82 67 84 68 81 69 56 70
REMARK SMILES IDX 57 71 58 72 59 74 80 75 60 76 67 77 75 78 61 79 62 80 68 81
REMARK SMILES IDX 74 82 69 83 76 84 77 85 78 86 79 87 63 89 64 90 65 91 66 92
REMARK SMILES IDX 70 94 71 95 72 96 73 97
REMARK H PARENT 41 5 44 6 33 15 8 26 29 42 23 47 16 52 52 62 58 73 79 88 66 93
REMARK H PARENT 73 98
REMARK Flexibility Score: inf
ROOT
ATOM      1  O   UNL     1      59.830  31.930 -30.442  1.00  0.00    -0.248 OA
ATOM      2  N   UNL     1      60.178  30.819 -29.161  1.00  0.00    -0.308 N 
ATOM      3  N   UNL     1      60.333  32.524 -28.895  1.00  0.00    -0.308 N 
ATOM      4  C   UNL     1      60.114  31.758 -29.499  1.00  0.00     0.323 C 
ATOM      5  H   UNL     1      60.354  30.712 -28.575  1.00  0.00     0.171 HD
ATOM      6  H   UNL     1      60.508  32.417 -28.310  1.00  0.00     0.171 HD
ENDROOT
BRANCH   2   7
ATOM      7  C   UNL     1      59.959  30.053 -29.765  1.00  0.00     0.043 A 
ATOM      8  C   UNL     1      59.088  28.588 -30.075  1.00  0.00     0.042 A 
ATOM      9  C   UNL     1      59.307  29.354 -29.471  1.00  0.00     0.040 A 
ATOM     10  C   UNL     1      59.522  28.521 -30.974  1.00  0.00     0.014 A 
ATOM     11  C   UNL     1      60.174  29.219 -31.268  1.00  0.00     0.003 A 
ATOM     12  C   UNL     1      60.393  29.986 -30.663  1.00  0.00     0.026 A 
BRANCH   8  13
ATOM     13  C   UNL     1      58.436  27.890 -29.781  1.00  0.00     0.255 C 
ATOM     14  N   UNL     1      58.723  27.173 -29.146  1.00  0.00    -0.322 N 
ATOM     15  H   UNL     1      59.306  27.161 -28.934  1.00  0.00     0.170 HD
ATOM     16  O   UNL     1      57.496  27.909 -30.122  1.00  0.00    -0.269 OA
BRANCH  14  17
ATOM     17  C   UNL     1      58.070  26.475 -28.852  1.00  0.00     0.045 A 
ATOM     18  C   UNL     1      56.545  26.048 -28.151  1.00  0.00     0.042 A 
ATOM     19  C   UNL     1      57.198  26.746 -28.445  1.00  0.00     0.040 A 
ATOM     20  C   UNL     1      56.765  25.079 -28.264  1.00  0.00     0.014 A 
ATOM     21  C   UNL     1      57.637  24.808 -28.671  1.00  0.00     0.006 A 
ATOM     22  C   UNL     1      58.290  25.506 -28.965  1.00  0.00    -0.027 A 
ATOM     23  C   UNL     1      59.162  25.236 -29.372  1.00  0.00     0.046 C 
BRANCH  18  24
ATOM     24  C   UNL     1      55.673  26.319 -27.744  1.00  0.00     0.255 C 
ATOM     25  N   UNL     1      55.558  26.300 -26.751  1.00  0.00    -0.321 N 
ATOM     26  H   UNL     1      56.027  26.120 -26.388  1.00  0.00     0.170 HD
ATOM     27  O   UNL     1      54.916  26.609 -28.330  1.00  0.00    -0.269 OA
BRANCH  25  28
ATOM     28  C   UNL     1      54.685  26.571 -26.343  1.00  0.00     0.050 A 
ATOM     29  C   UNL     1      54.424  28.230 -25.817  1.00  0.00     0.105 A 
ATOM     30  C   UNL     1      54.072  27.299 -25.920  1.00  0.00     0.028 A 
ATOM     31  C   UNL     1      53.846  28.939 -25.411  1.00  0.00     0.046 A 
ATOM     32  C   UNL     1      53.145  27.078 -25.618  1.00  0.00     0.008 A 
ATOM     33  C   UNL     1      52.919  28.718 -25.109  1.00  0.00     0.096 A 
ATOM     34  C   UNL     1      52.767  26.113 -25.718  1.00  0.00     0.102 A 
ATOM     35  C   UNL     1      52.569  27.787 -25.213  1.00  0.00     0.033 A 
ATOM     36  C   UNL     1      54.327  25.599 -26.454  1.00  0.00     0.028 A 
ATOM     37  C   UNL     1      53.362  25.368 -26.140  1.00  0.00     0.025 A 
BRANCH  29  38
ATOM     38  S   UNL     1      55.162  28.895 -25.932  1.00  0.00     0.295 S 
ATOM     39  O   UNL     1      54.742  29.213 -26.783  1.00  0.00    -0.194 OA
ATOM     40  O   UNL     1      55.581  28.577 -25.081  1.00  0.00    -0.194 OA
BRANCH  38  41
ATOM     41  O   UNL     1      55.899  29.561 -26.047  1.00  0.00    -0.282 OA
ATOM     42  H   UNL     1      56.028  29.787 -26.609  1.00  0.00     0.234 HD
ENDBRANCH  38  41
ENDBRANCH  29  38
BRANCH  33  43
ATOM     43  S   UNL     1      52.343  29.428 -24.705  1.00  0.00     0.294 S 
ATOM     44  O   UNL     1      51.911  29.584 -25.592  1.00  0.00    -0.194 OA
ATOM     45  O   UNL     1      52.776  29.271 -23.817  1.00  0.00    -0.194 OA
BRANCH  43  46
ATOM     46  O   UNL     1      51.768  30.137 -24.299  1.00  0.00    -0.282 OA
ATOM     47  H   UNL     1      51.641  30.654 -24.617  1.00  0.00     0.234 HD
ENDBRANCH  43  46
ENDBRANCH  33  43
BRANCH  34  48
ATOM     48  S   UNL     1      51.838  25.903 -25.413  1.00  0.00     0.295 S 
ATOM     49  O   UNL     1      51.486  26.142 -26.318  1.00  0.00    -0.194 OA
ATOM     50  O   UNL     1      52.189  25.663 -24.508  1.00  0.00    -0.194 OA
BRANCH  48  51
ATOM     51  O   UNL     1      50.909  25.693 -25.108  1.00  0.00    -0.282 OA
ATOM     52  H   UNL     1      50.705  25.908 -24.564  1.00  0.00     0.234 HD
ENDBRANCH  48  51
ENDBRANCH  34  48
ENDBRANCH  25  28
ENDBRANCH  18  24
ENDBRANCH  14  17
ENDBRANCH   8  13
ENDBRANCH   2   7
BRANCH   3  53
ATOM     53  C   UNL     1      60.268  33.462 -29.234  1.00  0.00     0.043 A 
ATOM     54  C   UNL     1      59.404  33.960 -29.168  1.00  0.00     0.040 A 
ATOM     55  C   UNL     1      61.069  33.903 -29.640  1.00  0.00     0.026 A 
ATOM     56  C   UNL     1      59.340  34.898 -29.508  1.00  0.00     0.042 A 
ATOM     57  C   UNL     1      61.006  34.841 -29.979  1.00  0.00     0.003 A 
ATOM     58  C   UNL     1      60.141  35.339 -29.913  1.00  0.00     0.014 A 
BRANCH  56  59
ATOM     59  C   UNL     1      58.475  35.396 -29.442  1.00  0.00     0.255 C 
ATOM     60  O   UNL     1      57.620  34.948 -29.702  1.00  0.00    -0.269 OA
ATOM     61  N   UNL     1      58.466  36.342 -29.117  1.00  0.00    -0.322 N 
ATOM     62  H   UNL     1      58.997  36.620 -28.956  1.00  0.00     0.170 HD
BRANCH  61  63
ATOM     63  C   UNL     1      57.601  36.839 -29.051  1.00  0.00     0.045 A 
ATOM     64  C   UNL     1      56.818  36.424 -28.587  1.00  0.00     0.040 A 
ATOM     65  C   UNL     1      57.518  37.753 -29.449  1.00  0.00    -0.027 A 
ATOM     66  C   UNL     1      55.954  36.922 -28.521  1.00  0.00     0.042 A 
ATOM     67  C   UNL     1      56.654  38.251 -29.383  1.00  0.00     0.006 A 
ATOM     68  C   UNL     1      58.301  38.169 -29.913  1.00  0.00     0.046 C 
ATOM     69  C   UNL     1      55.872  37.835 -28.919  1.00  0.00     0.014 A 
BRANCH  66  70
ATOM     70  C   UNL     1      55.172  36.506 -28.057  1.00  0.00     0.255 C 
ATOM     71  O   UNL     1      55.170  36.417 -27.061  1.00  0.00    -0.269 OA
ATOM     72  N   UNL     1      54.391  36.179 -28.589  1.00  0.00    -0.321 N 
ATOM     73  H   UNL     1      54.672  36.360 -29.113  1.00  0.00     0.170 HD
BRANCH  72  74
ATOM     74  C   UNL     1      53.608  35.762 -28.126  1.00  0.00     0.050 A 
ATOM     75  C   UNL     1      53.019  35.061 -28.621  1.00  0.00     0.028 A 
ATOM     76  C   UNL     1      53.378  36.028 -27.146  1.00  0.00     0.028 A 
ATOM     77  C   UNL     1      52.234  34.639 -28.167  1.00  0.00     0.008 A 
ATOM     78  C   UNL     1      53.246  34.811 -29.562  1.00  0.00     0.105 A 
ATOM     79  C   UNL     1      52.561  35.589 -26.673  1.00  0.00     0.025 A 
ATOM     80  C   UNL     1      51.985  34.889 -27.187  1.00  0.00     0.102 A 
ATOM     81  C   UNL     1      51.677  33.966 -28.654  1.00  0.00     0.033 A 
ATOM     82  C   UNL     1      52.689  34.138 -30.049  1.00  0.00     0.046 A 
ATOM     83  C   UNL     1      51.904  33.716 -29.595  1.00  0.00     0.096 A 
BRANCH  78  84
ATOM     84  S   UNL     1      53.830  34.910 -30.367  1.00  0.00     0.295 S 
ATOM     85  O   UNL     1      54.414  35.009 -31.173  1.00  0.00    -0.194 OA
ATOM     86  O   UNL     1      53.251  35.656 -30.695  1.00  0.00    -0.194 OA
BRANCH  84  87
ATOM     87  O   UNL     1      54.409  34.164 -30.039  1.00  0.00    -0.282 OA
ATOM     88  H   UNL     1      54.508  33.667 -30.397  1.00  0.00     0.234 HD
ENDBRANCH  84  87
ENDBRANCH  78  84
BRANCH  80  89
ATOM     89  S   UNL     1      51.198  34.461 -26.742  1.00  0.00     0.295 S 
ATOM     90  O   UNL     1      51.798  33.764 -26.349  1.00  0.00    -0.194 OA
ATOM     91  O   UNL     1      50.598  35.158 -27.134  1.00  0.00    -0.194 OA
BRANCH  89  92
ATOM     92  O   UNL     1      50.411  34.034 -26.297  1.00  0.00    -0.282 OA
ATOM     93  H   UNL     1      50.443  33.873 -25.699  1.00  0.00     0.234 HD
ENDBRANCH  89  92
ENDBRANCH  80  89
BRANCH  83  94
ATOM     94  S   UNL     1      51.347  33.044 -30.082  1.00  0.00     0.294 S 
ATOM     95  O   UNL     1      50.623  33.725 -30.194  1.00  0.00    -0.194 OA
ATOM     96  O   UNL     1      52.070  32.363 -29.970  1.00  0.00    -0.194 OA
BRANCH  94  97
ATOM     97  O   UNL     1      50.789  32.371 -30.569  1.00  0.00    -0.282 OA
ATOM     98  H   UNL     1      51.038  31.831 -30.743  1.00  0.00     0.234 HD
ENDBRANCH  94  97
ENDBRANCH  83  94
ENDBRANCH  72  74
ENDBRANCH  66  70
ENDBRANCH  61  63
ENDBRANCH  56  59
ENDBRANCH   3  53
TORSDOF 22
ENDMDL
