MODEL 1
REMARK VINA RESULT:   -11.695      0.000      0.000
REMARK INTER + INTRA:          19.745
REMARK INTER:                 -24.685
REMARK INTRA:                  44.430
REMARK UNBOUND:                44.430
REMARK SMILES Cc1ccc(C(=O)Nc2ccc(S(=O)(=O)O)c3cc(S(=O)(=O)O)cc(S(=O)(=O)O)c23)cc1NC(=O)c1cccc(NC(=O)Nc2cccc(C(=O)Nc3cc(C(=O)Nc4ccc(S(=O)(=O)O)c5cc(S(=O)(=O)O)cc(S(=O)(=O)O)c45)ccc3C)c2)c1
REMARK SMILES IDX 43 1 41 2 44 3 42 4 40 7 36 8 86 9 37 10 38 11 39 12 34 13
REMARK SMILES IDX 33 14 35 16 32 17 5 18 31 19 4 20 3 21 2 22 1 23 6 24 8 25
REMARK SMILES IDX 7 27 9 28 25 29 30 30 24 31 17 32 19 33 12 34 18 35 10 36
REMARK SMILES IDX 11 37 26 38 27 39 28 40 29 41 20 43 21 44 22 45 23 46 13 48
REMARK SMILES IDX 14 49 15 50 16 51 45 53 85 54 46 55 49 56 47 57 48 58 50 59
REMARK SMILES IDX 51 60 52 61 53 63 54 64 83 65 55 66 82 67 84 68 81 69 56 70
REMARK SMILES IDX 57 71 58 72 59 74 80 75 60 76 67 77 75 78 61 79 62 80 68 81
REMARK SMILES IDX 74 82 69 83 76 84 77 85 78 86 79 87 63 89 64 90 65 91 66 92
REMARK SMILES IDX 70 94 71 95 72 96 73 97
REMARK H PARENT 41 5 44 6 33 15 8 26 29 42 23 47 16 52 52 62 58 73 79 88 66 93
REMARK H PARENT 73 98
REMARK Flexibility Score: inf
ROOT
ATOM      1  O   UNL     1      33.300   2.380  32.012  1.00  0.00    -0.248 OA
ATOM      2  N   UNL     1      32.678   3.698  32.947  1.00  0.00    -0.308 N 
ATOM      3  N   UNL     1      34.278   3.105  33.244  1.00  0.00    -0.308 N 
ATOM      4  C   UNL     1      33.419   3.061  32.735  1.00  0.00     0.323 C 
ATOM      5  H   UNL     1      32.752   4.121  33.395  1.00  0.00     0.171 HD
ATOM      6  H   UNL     1      34.352   3.527  33.692  1.00  0.00     0.171 HD
ENDROOT
BRANCH   2   7
ATOM      7  C   UNL     1      31.819   3.655  32.438  1.00  0.00     0.043 A 
ATOM      8  C   UNL     1      30.365   2.812  32.016  1.00  0.00     0.042 A 
ATOM      9  C   UNL     1      31.225   2.855  32.525  1.00  0.00     0.040 A 
ATOM     10  C   UNL     1      30.100   3.569  31.418  1.00  0.00     0.014 A 
ATOM     11  C   UNL     1      30.694   4.368  31.330  1.00  0.00     0.003 A 
ATOM     12  C   UNL     1      31.554   4.411  31.840  1.00  0.00     0.026 A 
BRANCH   8  13
ATOM     13  C   UNL     1      29.772   2.013  32.104  1.00  0.00     0.255 C 
ATOM     14  N   UNL     1      28.895   2.090  32.578  1.00  0.00    -0.322 N 
ATOM     15  H   UNL     1      28.719   2.634  32.818  1.00  0.00     0.170 HD
ATOM     16  O   UNL     1      30.056   1.135  31.718  1.00  0.00    -0.269 OA
BRANCH  14  17
ATOM     17  C   UNL     1      28.303   1.290  32.666  1.00  0.00     0.045 A 
ATOM     18  C   UNL     1      28.069  -0.359  33.140  1.00  0.00     0.042 A 
ATOM     19  C   UNL     1      28.662   0.441  33.053  1.00  0.00     0.040 A 
ATOM     20  C   UNL     1      27.116  -0.311  32.841  1.00  0.00     0.014 A 
ATOM     21  C   UNL     1      26.756   0.538  32.454  1.00  0.00     0.006 A 
ATOM     22  C   UNL     1      27.349   1.339  32.366  1.00  0.00    -0.027 A 
ATOM     23  C   UNL     1      26.990   2.188  31.979  1.00  0.00     0.046 C 
BRANCH  18  24
ATOM     24  C   UNL     1      28.429  -1.209  33.528  1.00  0.00     0.255 C 
ATOM     25  N   UNL     1      28.863  -1.202  34.429  1.00  0.00    -0.321 N 
ATOM     26  H   UNL     1      28.909  -0.673  34.747  1.00  0.00     0.170 HD
ATOM     27  O   UNL     1      28.354  -2.063  33.014  1.00  0.00    -0.269 OA
BRANCH  25  28
ATOM     28  C   UNL     1      29.222  -2.051  34.816  1.00  0.00     0.050 A 
ATOM     29  C   UNL     1      30.936  -2.432  34.691  1.00  0.00     0.105 A 
ATOM     30  C   UNL     1      30.023  -2.691  35.006  1.00  0.00     0.028 A 
ATOM     31  C   UNL     1      31.714  -3.037  34.866  1.00  0.00     0.046 A 
ATOM     32  C   UNL     1      29.887  -3.552  35.495  1.00  0.00     0.008 A 
ATOM     33  C   UNL     1      31.578  -3.899  35.356  1.00  0.00     0.096 A 
ATOM     34  C   UNL     1      28.941  -3.834  35.828  1.00  0.00     0.102 A 
ATOM     35  C   UNL     1      30.664  -4.155  35.669  1.00  0.00     0.033 A 
ATOM     36  C   UNL     1      28.268  -2.313  35.140  1.00  0.00     0.028 A 
ATOM     37  C   UNL     1      28.126  -3.210  35.649  1.00  0.00     0.025 A 
BRANCH  29  38
ATOM     38  S   UNL     1      31.543  -1.786  34.227  1.00  0.00     0.295 S 
ATOM     39  O   UNL     1      31.422  -2.289  33.371  1.00  0.00    -0.194 OA
ATOM     40  O   UNL     1      31.663  -1.284  35.084  1.00  0.00    -0.194 OA
BRANCH  38  41
ATOM     41  O   UNL     1      32.149  -1.140  33.763  1.00  0.00    -0.282 OA
ATOM     42  H   UNL     1      32.736  -1.298  33.644  1.00  0.00     0.234 HD
ENDBRANCH  38  41
ENDBRANCH  29  38
BRANCH  33  43
ATOM     43  S   UNL     1      32.356  -4.502  35.530  1.00  0.00     0.294 S 
ATOM     44  O   UNL     1      32.410  -4.162  36.469  1.00  0.00    -0.194 OA
ATOM     45  O   UNL     1      32.302  -4.842  34.591  1.00  0.00    -0.194 OA
BRANCH  43  46
ATOM     46  O   UNL     1      33.134  -5.105  35.704  1.00  0.00    -0.282 OA
ATOM     47  H   UNL     1      33.159  -5.437  36.227  1.00  0.00     0.234 HD
ENDBRANCH  43  46
ENDBRANCH  33  43
BRANCH  34  48
ATOM     48  S   UNL     1      28.816  -4.698  36.316  1.00  0.00     0.295 S 
ATOM     49  O   UNL     1      28.579  -5.149  35.456  1.00  0.00    -0.194 OA
ATOM     50  O   UNL     1      29.054  -4.247  37.177  1.00  0.00    -0.194 OA
BRANCH  48  51
ATOM     51  O   UNL     1      28.692  -5.562  36.804  1.00  0.00    -0.282 OA
ATOM     52  H   UNL     1      28.121  -5.775  36.917  1.00  0.00     0.234 HD
ENDBRANCH  48  51
ENDBRANCH  34  48
ENDBRANCH  25  28
ENDBRANCH  18  24
ENDBRANCH  14  17
ENDBRANCH   8  13
ENDBRANCH   2   7
BRANCH   3  53
ATOM     53  C   UNL     1      35.018   2.467  33.032  1.00  0.00     0.043 A 
ATOM     54  C   UNL     1      35.128   1.631  33.568  1.00  0.00     0.040 A 
ATOM     55  C   UNL     1      35.649   2.666  32.281  1.00  0.00     0.026 A 
ATOM     56  C   UNL     1      35.869   0.993  33.354  1.00  0.00     0.042 A 
ATOM     57  C   UNL     1      36.390   2.029  32.067  1.00  0.00     0.003 A 
ATOM     58  C   UNL     1      36.500   1.193  32.604  1.00  0.00     0.014 A 
BRANCH  56  59
ATOM     59  C   UNL     1      35.979   0.157  33.891  1.00  0.00     0.255 C 
ATOM     60  O   UNL     1      36.872  -0.290  33.943  1.00  0.00    -0.269 OA
ATOM     61  N   UNL     1      35.196  -0.233  34.377  1.00  0.00    -0.322 N 
ATOM     62  H   UNL     1      34.642   0.045  34.345  1.00  0.00     0.170 HD
BRANCH  61  63
ATOM     63  C   UNL     1      35.306  -1.069  34.913  1.00  0.00     0.045 A 
ATOM     64  C   UNL     1      35.653  -1.901  34.479  1.00  0.00     0.040 A 
ATOM     65  C   UNL     1      35.069  -1.075  35.885  1.00  0.00    -0.027 A 
ATOM     66  C   UNL     1      35.763  -2.737  35.016  1.00  0.00     0.042 A 
ATOM     67  C   UNL     1      35.179  -1.911  36.422  1.00  0.00     0.006 A 
ATOM     68  C   UNL     1      34.722  -0.243  36.319  1.00  0.00     0.046 C 
ATOM     69  C   UNL     1      35.526  -2.742  35.987  1.00  0.00     0.014 A 
BRANCH  66  70
ATOM     70  C   UNL     1      36.110  -3.568  34.581  1.00  0.00     0.255 C 
ATOM     71  O   UNL     1      37.010  -3.925  34.830  1.00  0.00    -0.269 OA
ATOM     72  N   UNL     1      35.556  -4.042  33.896  1.00  0.00    -0.321 N 
ATOM     73  H   UNL     1      35.109  -3.617  33.963  1.00  0.00     0.170 HD
BRANCH  72  74
ATOM     74  C   UNL     1      35.902  -4.873  33.461  1.00  0.00     0.050 A 
ATOM     75  C   UNL     1      35.639  -5.099  32.479  1.00  0.00     0.028 A 
ATOM     76  C   UNL     1      36.529  -5.518  33.986  1.00  0.00     0.028 A 
ATOM     77  C   UNL     1      35.980  -5.928  32.034  1.00  0.00     0.008 A 
ATOM     78  C   UNL     1      35.037  -4.475  31.980  1.00  0.00     0.105 A 
ATOM     79  C   UNL     1      36.884  -6.381  33.523  1.00  0.00     0.025 A 
ATOM     80  C   UNL     1      36.607  -6.587  32.541  1.00  0.00     0.102 A 
ATOM     81  C   UNL     1      35.718  -6.132  31.091  1.00  0.00     0.033 A 
ATOM     82  C   UNL     1      34.776  -4.680  31.037  1.00  0.00     0.046 A 
ATOM     83  C   UNL     1      35.117  -5.508  30.592  1.00  0.00     0.096 A 
BRANCH  78  84
ATOM     84  S   UNL     1      34.493  -3.637  31.949  1.00  0.00     0.295 S 
ATOM     85  O   UNL     1      33.949  -2.799  31.918  1.00  0.00    -0.194 OA
ATOM     86  O   UNL     1      35.288  -3.133  31.612  1.00  0.00    -0.194 OA
BRANCH  84  87
ATOM     87  O   UNL     1      33.697  -4.141  32.286  1.00  0.00    -0.282 OA
ATOM     88  H   UNL     1      33.700  -4.376  32.860  1.00  0.00     0.234 HD
ENDBRANCH  84  87
ENDBRANCH  78  84
BRANCH  80  89
ATOM     89  S   UNL     1      36.943  -7.413  32.087  1.00  0.00     0.295 S 
ATOM     90  O   UNL     1      37.677  -6.883  31.663  1.00  0.00    -0.194 OA
ATOM     91  O   UNL     1      36.208  -7.943  32.511  1.00  0.00    -0.194 OA
BRANCH  89  92
ATOM     92  O   UNL     1      37.277  -8.239  31.633  1.00  0.00    -0.282 OA
ATOM     93  H   UNL     1      37.868  -8.414  31.705  1.00  0.00     0.234 HD
ENDBRANCH  89  92
ENDBRANCH  80  89
BRANCH  83  94
ATOM     94  S   UNL     1      34.855  -5.713  29.649  1.00  0.00     0.294 S 
ATOM     95  O   UNL     1      35.673  -5.241  29.320  1.00  0.00    -0.194 OA
ATOM     96  O   UNL     1      34.037  -6.185  29.978  1.00  0.00    -0.194 OA
BRANCH  94  97
ATOM     97  O   UNL     1      34.594  -5.917  28.706  1.00  0.00    -0.282 OA
ATOM     98  H   UNL     1      34.996  -5.818  28.244  1.00  0.00     0.234 HD
ENDBRANCH  94  97
ENDBRANCH  83  94
ENDBRANCH  72  74
ENDBRANCH  66  70
ENDBRANCH  61  63
ENDBRANCH  56  59
ENDBRANCH   3  53
TORSDOF 22
ENDMDL
MODEL 2
REMARK VINA RESULT:   -11.666      2.611      5.904
REMARK INTER + INTRA:          19.806
REMARK INTER:                 -22.762
REMARK INTRA:                  42.568
REMARK UNBOUND:                44.430
REMARK SMILES Cc1ccc(C(=O)Nc2ccc(S(=O)(=O)O)c3cc(S(=O)(=O)O)cc(S(=O)(=O)O)c23)cc1NC(=O)c1cccc(NC(=O)Nc2cccc(C(=O)Nc3cc(C(=O)Nc4ccc(S(=O)(=O)O)c5cc(S(=O)(=O)O)cc(S(=O)(=O)O)c45)ccc3C)c2)c1
REMARK SMILES IDX 43 1 41 2 44 3 42 4 40 7 36 8 86 9 37 10 38 11 39 12 34 13
REMARK SMILES IDX 33 14 35 16 32 17 5 18 31 19 4 20 3 21 2 22 1 23 6 24 8 25
REMARK SMILES IDX 7 27 9 28 25 29 30 30 24 31 17 32 19 33 12 34 18 35 10 36
REMARK SMILES IDX 11 37 26 38 27 39 28 40 29 41 20 43 21 44 22 45 23 46 13 48
REMARK SMILES IDX 14 49 15 50 16 51 45 53 85 54 46 55 49 56 47 57 48 58 50 59
REMARK SMILES IDX 51 60 52 61 53 63 54 64 83 65 55 66 82 67 84 68 81 69 56 70
REMARK SMILES IDX 57 71 58 72 59 74 80 75 60 76 67 77 75 78 61 79 62 80 68 81
REMARK SMILES IDX 74 82 69 83 76 84 77 85 78 86 79 87 63 89 64 90 65 91 66 92
REMARK SMILES IDX 70 94 71 95 72 96 73 97
REMARK H PARENT 41 5 44 6 33 15 8 26 29 42 23 47 16 52 52 62 58 73 79 88 66 93
REMARK H PARENT 73 98
REMARK Flexibility Score: inf
ROOT
ATOM      1  O   UNL     1      31.145  -0.906  34.863  1.00  0.00    -0.248 OA
ATOM      2  N   UNL     1      30.206  -0.993  36.315  1.00  0.00    -0.308 N 
ATOM      3  N   UNL     1      31.204   0.389  36.012  1.00  0.00    -0.308 N 
ATOM      4  C   UNL     1      30.852  -0.503  35.730  1.00  0.00     0.323 C 
ATOM      5  H   UNL     1      30.024  -0.743  36.853  1.00  0.00     0.171 HD
ATOM      6  H   UNL     1      31.023   0.639  36.549  1.00  0.00     0.171 HD
ENDROOT
BRANCH   2   7
ATOM      7  C   UNL     1      29.853  -1.885  36.034  1.00  0.00     0.043 A 
ATOM      8  C   UNL     1      30.086  -3.586  35.801  1.00  0.00     0.042 A 
ATOM      9  C   UNL     1      30.440  -2.694  36.082  1.00  0.00     0.040 A 
ATOM     10  C   UNL     1      29.146  -3.670  35.472  1.00  0.00     0.014 A 
ATOM     11  C   UNL     1      28.559  -2.862  35.424  1.00  0.00     0.003 A 
ATOM     12  C   UNL     1      28.913  -1.969  35.705  1.00  0.00     0.026 A 
BRANCH   8  13
ATOM     13  C   UNL     1      30.673  -4.393  35.849  1.00  0.00     0.255 C 
ATOM     14  N   UNL     1      30.646  -4.984  36.656  1.00  0.00    -0.322 N 
ATOM     15  H   UNL     1      30.266  -4.850  37.126  1.00  0.00     0.170 HD
ATOM     16  O   UNL     1      31.288  -4.610  35.091  1.00  0.00    -0.269 OA
BRANCH  14  17
ATOM     17  C   UNL     1      31.234  -5.791  36.703  1.00  0.00     0.045 A 
ATOM     18  C   UNL     1      32.813  -6.503  36.662  1.00  0.00     0.042 A 
ATOM     19  C   UNL     1      32.225  -5.695  36.615  1.00  0.00     0.040 A 
ATOM     20  C   UNL     1      32.409  -7.407  36.798  1.00  0.00     0.014 A 
ATOM     21  C   UNL     1      31.418  -7.504  36.887  1.00  0.00     0.006 A 
ATOM     22  C   UNL     1      30.830  -6.696  36.839  1.00  0.00    -0.027 A 
ATOM     23  C   UNL     1      29.839  -6.793  36.928  1.00  0.00     0.046 C 
BRANCH  18  24
ATOM     24  C   UNL     1      33.805  -6.406  36.574  1.00  0.00     0.255 C 
ATOM     25  N   UNL     1      34.375  -6.336  37.392  1.00  0.00    -0.321 N 
ATOM     26  H   UNL     1      34.114  -6.354  37.954  1.00  0.00     0.170 HD
ATOM     27  O   UNL     1      34.225  -6.378  35.667  1.00  0.00    -0.269 OA
BRANCH  25  28
ATOM     28  C   UNL     1      35.366  -6.239  37.303  1.00  0.00     0.050 A 
ATOM     29  C   UNL     1      36.110  -4.644  37.302  1.00  0.00     0.105 A 
ATOM     30  C   UNL     1      36.215  -5.637  37.250  1.00  0.00     0.028 A 
ATOM     31  C   UNL     1      36.916  -4.054  37.252  1.00  0.00     0.046 A 
ATOM     32  C   UNL     1      37.125  -6.040  37.147  1.00  0.00     0.008 A 
ATOM     33  C   UNL     1      37.826  -4.456  37.150  1.00  0.00     0.096 A 
ATOM     34  C   UNL     1      37.248  -7.072  37.092  1.00  0.00     0.102 A 
ATOM     35  C   UNL     1      37.929  -5.449  37.097  1.00  0.00     0.033 A 
ATOM     36  C   UNL     1      35.467  -7.275  37.250  1.00  0.00     0.028 A 
ATOM     37  C   UNL     1      36.414  -7.694  37.143  1.00  0.00     0.025 A 
BRANCH  29  38
ATOM     38  S   UNL     1      35.525  -3.838  37.391  1.00  0.00     0.295 S 
ATOM     39  O   UNL     1      35.496  -3.970  38.383  1.00  0.00    -0.194 OA
ATOM     40  O   UNL     1      35.554  -3.707  36.400  1.00  0.00    -0.194 OA
BRANCH  38  41
ATOM     41  O   UNL     1      34.939  -3.032  37.480  1.00  0.00    -0.282 OA
ATOM     42  H   UNL     1      35.191  -2.478  37.599  1.00  0.00     0.234 HD
ENDBRANCH  38  41
ENDBRANCH  29  38
BRANCH  33  43
ATOM     43  S   UNL     1      38.630  -3.865  37.099  1.00  0.00     0.294 S 
ATOM     44  O   UNL     1      38.656  -3.815  38.098  1.00  0.00    -0.194 OA
ATOM     45  O   UNL     1      38.605  -3.916  36.101  1.00  0.00    -0.194 OA
BRANCH  43  46
ATOM     46  O   UNL     1      39.435  -3.274  37.049  1.00  0.00    -0.282 OA
ATOM     47  H   UNL     1      39.372  -2.675  36.906  1.00  0.00     0.234 HD
ENDBRANCH  43  46
ENDBRANCH  33  43
BRANCH  34  48
ATOM     48  S   UNL     1      38.163  -7.464  36.989  1.00  0.00     0.295 S 
ATOM     49  O   UNL     1      38.273  -7.466  37.983  1.00  0.00    -0.194 OA
ATOM     50  O   UNL     1      38.054  -7.462  35.995  1.00  0.00    -0.194 OA
BRANCH  48  51
ATOM     51  O   UNL     1      39.078  -7.856  36.888  1.00  0.00    -0.282 OA
ATOM     52  H   UNL     1      39.210  -8.405  37.143  1.00  0.00     0.234 HD
ENDBRANCH  48  51
ENDBRANCH  34  48
ENDBRANCH  25  28
ENDBRANCH  18  24
ENDBRANCH  14  17
ENDBRANCH   8  13
ENDBRANCH   2   7
BRANCH   3  53
ATOM     53  C   UNL     1      31.851   0.878  35.426  1.00  0.00     0.043 A 
ATOM     54  C   UNL     1      32.773   0.518  35.288  1.00  0.00     0.040 A 
ATOM     55  C   UNL     1      31.573   1.728  34.977  1.00  0.00     0.026 A 
ATOM     56  C   UNL     1      33.419   1.008  34.702  1.00  0.00     0.042 A 
ATOM     57  C   UNL     1      32.219   2.218  34.391  1.00  0.00     0.003 A 
ATOM     58  C   UNL     1      33.141   1.858  34.254  1.00  0.00     0.014 A 
BRANCH  56  59
ATOM     59  C   UNL     1      34.341   0.648  34.565  1.00  0.00     0.255 C 
ATOM     60  O   UNL     1      34.797   0.766  33.682  1.00  0.00    -0.269 OA
ATOM     61  N   UNL     1      34.808   0.171  35.309  1.00  0.00    -0.322 N 
ATOM     62  H   UNL     1      34.525   0.098  35.856  1.00  0.00     0.170 HD
BRANCH  61  63
ATOM     63  C   UNL     1      35.731  -0.189  35.171  1.00  0.00     0.045 A 
ATOM     64  C   UNL     1      35.891  -0.912  34.499  1.00  0.00     0.040 A 
ATOM     65  C   UNL     1      36.494   0.174  35.707  1.00  0.00    -0.027 A 
ATOM     66  C   UNL     1      36.814  -1.272  34.361  1.00  0.00     0.042 A 
ATOM     67  C   UNL     1      37.417  -0.186  35.569  1.00  0.00     0.006 A 
ATOM     68  C   UNL     1      36.334   0.896  36.379  1.00  0.00     0.046 C 
ATOM     69  C   UNL     1      37.576  -0.909  34.896  1.00  0.00     0.014 A 
BRANCH  66  70
ATOM     70  C   UNL     1      36.973  -1.994  33.689  1.00  0.00     0.255 C 
ATOM     71  O   UNL     1      37.808  -1.990  33.138  1.00  0.00    -0.269 OA
ATOM     72  N   UNL     1      36.297  -2.721  33.566  1.00  0.00    -0.321 N 
ATOM     73  H   UNL     1      35.941  -2.464  34.005  1.00  0.00     0.170 HD
BRANCH  72  74
ATOM     74  C   UNL     1      36.456  -3.444  32.894  1.00  0.00     0.050 A 
ATOM     75  C   UNL     1      35.654  -3.981  32.503  1.00  0.00     0.028 A 
ATOM     76  C   UNL     1      37.424  -3.665  32.581  1.00  0.00     0.028 A 
ATOM     77  C   UNL     1      35.802  -4.706  31.830  1.00  0.00     0.008 A 
ATOM     78  C   UNL     1      34.727  -3.764  32.808  1.00  0.00     0.105 A 
ATOM     79  C   UNL     1      37.578  -4.420  31.880  1.00  0.00     0.025 A 
ATOM     80  C   UNL     1      36.761  -4.944  31.502  1.00  0.00     0.102 A 
ATOM     81  C   UNL     1      35.022  -5.213  31.463  1.00  0.00     0.033 A 
ATOM     82  C   UNL     1      33.947  -4.271  32.441  1.00  0.00     0.046 A 
ATOM     83  C   UNL     1      34.095  -4.996  31.768  1.00  0.00     0.096 A 
BRANCH  78  84
ATOM     84  S   UNL     1      34.106  -3.220  33.373  1.00  0.00     0.295 S 
ATOM     85  O   UNL     1      33.486  -2.676  33.938  1.00  0.00    -0.194 OA
ATOM     86  O   UNL     1      34.029  -2.545  32.639  1.00  0.00    -0.194 OA
BRANCH  84  87
ATOM     87  O   UNL     1      34.184  -3.894  34.108  1.00  0.00    -0.282 OA
ATOM     88  H   UNL     1      34.711  -3.941  34.431  1.00  0.00     0.234 HD
ENDBRANCH  84  87
ENDBRANCH  78  84
BRANCH  80  89
ATOM     89  S   UNL     1      36.898  -5.671  30.829  1.00  0.00     0.295 S 
ATOM     90  O   UNL     1      36.782  -5.008  30.089  1.00  0.00    -0.194 OA
ATOM     91  O   UNL     1      37.015  -6.333  31.569  1.00  0.00    -0.194 OA
BRANCH  89  92
ATOM     92  O   UNL     1      37.035  -6.398  30.156  1.00  0.00    -0.282 OA
ATOM     93  H   UNL     1      37.610  -6.570  29.999  1.00  0.00     0.234 HD
ENDBRANCH  89  92
ENDBRANCH  80  89
BRANCH  83  94
ATOM     94  S   UNL     1      33.316  -5.504  31.401  1.00  0.00     0.294 S 
ATOM     95  O   UNL     1      33.302  -4.904  30.601  1.00  0.00    -0.194 OA
ATOM     96  O   UNL     1      33.329  -6.103  32.201  1.00  0.00    -0.194 OA
BRANCH  94  97
ATOM     97  O   UNL     1      32.536  -6.011  31.033  1.00  0.00    -0.282 OA
ATOM     98  H   UNL     1      32.512  -6.147  30.429  1.00  0.00     0.234 HD
ENDBRANCH  94  97
ENDBRANCH  83  94
ENDBRANCH  72  74
ENDBRANCH  66  70
ENDBRANCH  61  63
ENDBRANCH  56  59
ENDBRANCH   3  53
TORSDOF 22
ENDMDL
MODEL 3
REMARK VINA RESULT:   -11.577      2.678      7.300
REMARK INTER + INTRA:          19.994
REMARK INTER:                 -24.756
REMARK INTRA:                  44.750
REMARK UNBOUND:                44.430
REMARK SMILES Cc1ccc(C(=O)Nc2ccc(S(=O)(=O)O)c3cc(S(=O)(=O)O)cc(S(=O)(=O)O)c23)cc1NC(=O)c1cccc(NC(=O)Nc2cccc(C(=O)Nc3cc(C(=O)Nc4ccc(S(=O)(=O)O)c5cc(S(=O)(=O)O)cc(S(=O)(=O)O)c45)ccc3C)c2)c1
REMARK SMILES IDX 43 1 41 2 44 3 42 4 40 7 36 8 86 9 37 10 38 11 39 12 34 13
REMARK SMILES IDX 33 14 35 16 32 17 5 18 31 19 4 20 3 21 2 22 1 23 6 24 8 25
REMARK SMILES IDX 7 27 9 28 25 29 30 30 24 31 17 32 19 33 12 34 18 35 10 36
REMARK SMILES IDX 11 37 26 38 27 39 28 40 29 41 20 43 21 44 22 45 23 46 13 48
REMARK SMILES IDX 14 49 15 50 16 51 45 53 85 54 46 55 49 56 47 57 48 58 50 59
REMARK SMILES IDX 51 60 52 61 53 63 54 64 83 65 55 66 82 67 84 68 81 69 56 70
REMARK SMILES IDX 57 71 58 72 59 74 80 75 60 76 67 77 75 78 61 79 62 80 68 81
REMARK SMILES IDX 74 82 69 83 76 84 77 85 78 86 79 87 63 89 64 90 65 91 66 92
REMARK SMILES IDX 70 94 71 95 72 96 73 97
REMARK H PARENT 41 5 44 6 33 15 8 26 29 42 23 47 16 52 52 62 58 73 79 88 66 93
REMARK H PARENT 73 98
REMARK Flexibility Score: inf
ROOT
ATOM      1  O   UNL     1      35.813  -6.762  32.012  1.00  0.00    -0.248 OA
ATOM      2  N   UNL     1      36.674  -6.271  30.592  1.00  0.00    -0.308 N 
ATOM      3  N   UNL     1      37.360  -7.454  31.656  1.00  0.00    -0.308 N 
ATOM      4  C   UNL     1      36.616  -6.829  31.420  1.00  0.00     0.323 C 
ATOM      5  H   UNL     1      37.172  -6.313  30.225  1.00  0.00     0.171 HD
ATOM      6  H   UNL     1      37.858  -7.495  31.289  1.00  0.00     0.171 HD
ENDROOT
BRANCH   2   7
ATOM      7  C   UNL     1      35.930  -5.647  30.356  1.00  0.00     0.043 A 
ATOM      8  C   UNL     1      34.665  -4.567  30.842  1.00  0.00     0.042 A 
ATOM      9  C   UNL     1      35.410  -5.192  31.079  1.00  0.00     0.040 A 
ATOM     10  C   UNL     1      34.441  -4.397  29.883  1.00  0.00     0.014 A 
ATOM     11  C   UNL     1      34.961  -4.852  29.160  1.00  0.00     0.003 A 
ATOM     12  C   UNL     1      35.706  -5.477  29.397  1.00  0.00     0.026 A 
BRANCH   8  13
ATOM     13  C   UNL     1      34.146  -4.113  31.565  1.00  0.00     0.255 C 
ATOM     14  N   UNL     1      33.585  -4.652  32.193  1.00  0.00    -0.322 N 
ATOM     15  H   UNL     1      33.558  -5.269  32.134  1.00  0.00     0.170 HD
ATOM     16  O   UNL     1      34.188  -3.118  31.661  1.00  0.00    -0.269 OA
BRANCH  14  17
ATOM     17  C   UNL     1      33.066  -4.197  32.916  1.00  0.00     0.045 A 
ATOM     18  C   UNL     1      32.005  -2.928  33.430  1.00  0.00     0.042 A 
ATOM     19  C   UNL     1      32.524  -3.384  32.707  1.00  0.00     0.040 A 
ATOM     20  C   UNL     1      32.028  -3.287  34.363  1.00  0.00     0.014 A 
ATOM     21  C   UNL     1      32.570  -4.101  34.573  1.00  0.00     0.006 A 
ATOM     22  C   UNL     1      33.089  -4.556  33.850  1.00  0.00    -0.027 A 
ATOM     23  C   UNL     1      33.631  -5.369  34.059  1.00  0.00     0.046 C 
BRANCH  18  24
ATOM     24  C   UNL     1      31.463  -2.114  33.221  1.00  0.00     0.255 C 
ATOM     25  N   UNL     1      31.136  -1.527  33.961  1.00  0.00    -0.321 N 
ATOM     26  H   UNL     1      31.269  -1.668  34.550  1.00  0.00     0.170 HD
ATOM     27  O   UNL     1      31.248  -1.888  32.271  1.00  0.00    -0.269 OA
BRANCH  25  28
ATOM     28  C   UNL     1      30.593  -0.713  33.752  1.00  0.00     0.050 A 
ATOM     29  C   UNL     1      28.836  -0.802  33.696  1.00  0.00     0.105 A 
ATOM     30  C   UNL     1      29.669  -0.255  33.607  1.00  0.00     0.028 A 
ATOM     31  C   UNL     1      27.942  -0.375  33.560  1.00  0.00     0.046 A 
ATOM     32  C   UNL     1      29.608   0.717  33.381  1.00  0.00     0.008 A 
ATOM     33  C   UNL     1      27.881   0.598  33.335  1.00  0.00     0.096 A 
ATOM     34  C   UNL     1      30.467   1.298  33.285  1.00  0.00     0.102 A 
ATOM     35  C   UNL     1      28.714   1.143  33.246  1.00  0.00     0.033 A 
ATOM     36  C   UNL     1      31.465  -0.151  33.660  1.00  0.00     0.028 A 
ATOM     37  C   UNL     1      31.402   0.861  33.425  1.00  0.00     0.025 A 
BRANCH  29  38
ATOM     38  S   UNL     1      28.391  -1.679  33.878  1.00  0.00     0.295 S 
ATOM     39  O   UNL     1      28.464  -1.511  34.862  1.00  0.00    -0.194 OA
ATOM     40  O   UNL     1      28.318  -1.845  32.895  1.00  0.00    -0.194 OA
BRANCH  38  41
ATOM     41  O   UNL     1      27.945  -2.555  34.060  1.00  0.00    -0.282 OA
ATOM     42  H   UNL     1      27.750  -2.908  33.588  1.00  0.00     0.234 HD
ENDBRANCH  38  41
ENDBRANCH  29  38
BRANCH  33  43
ATOM     43  S   UNL     1      26.986   1.023  33.199  1.00  0.00     0.294 S 
ATOM     44  O   UNL     1      26.963   1.285  34.164  1.00  0.00    -0.194 OA
ATOM     45  O   UNL     1      27.009   0.761  32.234  1.00  0.00    -0.194 OA
BRANCH  43  46
ATOM     46  O   UNL     1      26.092   1.448  33.062  1.00  0.00    -0.282 OA
ATOM     47  H   UNL     1      25.821   1.757  33.526  1.00  0.00     0.234 HD
ENDBRANCH  43  46
ENDBRANCH  33  43
BRANCH  34  48
ATOM     48  S   UNL     1      30.393   2.270  33.059  1.00  0.00     0.295 S 
ATOM     49  O   UNL     1      30.471   2.050  32.087  1.00  0.00    -0.194 OA
ATOM     50  O   UNL     1      30.315   2.491  34.032  1.00  0.00    -0.194 OA
BRANCH  48  51
ATOM     51  O   UNL     1      30.320   3.241  32.833  1.00  0.00    -0.282 OA
ATOM     52  H   UNL     1      29.921   3.602  33.140  1.00  0.00     0.234 HD
ENDBRANCH  48  51
ENDBRANCH  34  48
ENDBRANCH  25  28
ENDBRANCH  18  24
ENDBRANCH  14  17
ENDBRANCH   8  13
ENDBRANCH   2   7
BRANCH   3  53
ATOM     53  C   UNL     1      37.301  -8.011  32.484  1.00  0.00     0.043 A 
ATOM     54  C   UNL     1      37.115  -7.579  33.366  1.00  0.00     0.040 A 
ATOM     55  C   UNL     1      37.429  -9.002  32.429  1.00  0.00     0.026 A 
ATOM     56  C   UNL     1      37.057  -8.137  34.194  1.00  0.00     0.042 A 
ATOM     57  C   UNL     1      37.370  -9.560  33.257  1.00  0.00     0.003 A 
ATOM     58  C   UNL     1      37.184  -9.128  34.139  1.00  0.00     0.014 A 
BRANCH  56  59
ATOM     59  C   UNL     1      36.871  -7.705  35.076  1.00  0.00     0.255 C 
ATOM     60  O   UNL     1      35.989  -7.848  35.527  1.00  0.00    -0.269 OA
ATOM     61  N   UNL     1      37.565  -7.129  35.508  1.00  0.00    -0.322 N 
ATOM     62  H   UNL     1      38.112  -7.041  35.228  1.00  0.00     0.170 HD
BRANCH  61  63
ATOM     63  C   UNL     1      37.379  -6.697  36.390  1.00  0.00     0.045 A 
ATOM     64  C   UNL     1      36.679  -5.987  36.461  1.00  0.00     0.040 A 
ATOM     65  C   UNL     1      37.894  -6.975  37.201  1.00  0.00    -0.027 A 
ATOM     66  C   UNL     1      36.493  -5.555  37.344  1.00  0.00     0.042 A 
ATOM     67  C   UNL     1      37.708  -6.542  38.083  1.00  0.00     0.006 A 
ATOM     68  C   UNL     1      38.595  -7.685  37.129  1.00  0.00     0.046 C 
ATOM     69  C   UNL     1      37.007  -5.832  38.154  1.00  0.00     0.014 A 
BRANCH  66  70
ATOM     70  C   UNL     1      35.792  -4.845  37.414  1.00  0.00     0.255 C 
ATOM     71  O   UNL     1      34.924  -5.042  37.870  1.00  0.00    -0.269 OA
ATOM     72  N   UNL     1      35.960  -3.937  37.029  1.00  0.00    -0.321 N 
ATOM     73  H   UNL     1      36.522  -4.121  36.841  1.00  0.00     0.170 HD
BRANCH  72  74
ATOM     74  C   UNL     1      35.259  -3.226  37.100  1.00  0.00     0.050 A 
ATOM     75  C   UNL     1      35.247  -2.434  36.424  1.00  0.00     0.028 A 
ATOM     76  C   UNL     1      34.537  -3.275  37.849  1.00  0.00     0.028 A 
ATOM     77  C   UNL     1      34.552  -1.718  36.486  1.00  0.00     0.008 A 
ATOM     78  C   UNL     1      35.944  -2.394  35.708  1.00  0.00     0.105 A 
ATOM     79  C   UNL     1      33.813  -2.529  37.913  1.00  0.00     0.025 A 
ATOM     80  C   UNL     1      33.820  -1.746  37.227  1.00  0.00     0.102 A 
ATOM     81  C   UNL     1      34.552  -0.963  35.831  1.00  0.00     0.033 A 
ATOM     82  C   UNL     1      35.944  -1.639  35.052  1.00  0.00     0.046 A 
ATOM     83  C   UNL     1      35.248  -0.923  35.114  1.00  0.00     0.096 A 
BRANCH  78  84
ATOM     84  S   UNL     1      36.747  -2.784  35.258  1.00  0.00     0.295 S 
ATOM     85  O   UNL     1      37.551  -3.175  34.809  1.00  0.00    -0.194 OA
ATOM     86  O   UNL     1      37.339  -2.340  35.931  1.00  0.00    -0.194 OA
BRANCH  84  87
ATOM     87  O   UNL     1      36.155  -3.229  34.586  1.00  0.00    -0.282 OA
ATOM     88  H   UNL     1      36.138  -3.847  34.548  1.00  0.00     0.234 HD
ENDBRANCH  84  87
ENDBRANCH  78  84
BRANCH  80  89
ATOM     89  S   UNL     1      33.129  -1.025  37.280  1.00  0.00     0.295 S 
ATOM     90  O   UNL     1      33.750  -0.468  37.831  1.00  0.00    -0.194 OA
ATOM     91  O   UNL     1      32.507  -1.582  36.729  1.00  0.00    -0.194 OA
BRANCH  89  92
ATOM     92  O   UNL     1      32.437  -0.305  37.332  1.00  0.00    -0.282 OA
ATOM     93  H   UNL     1      32.592   0.259  37.540  1.00  0.00     0.234 HD
ENDBRANCH  89  92
ENDBRANCH  80  89
BRANCH  83  94
ATOM     94  S   UNL     1      35.249  -0.168  34.459  1.00  0.00     0.294 S 
ATOM     95  O   UNL     1      34.763  -0.740  33.798  1.00  0.00    -0.194 OA
ATOM     96  O   UNL     1      35.735   0.405  35.119  1.00  0.00    -0.194 OA
BRANCH  94  97
ATOM     97  O   UNL     1      35.249   0.588  33.803  1.00  0.00    -0.282 OA
ATOM     98  H   UNL     1      34.738   0.928  33.723  1.00  0.00     0.234 HD
ENDBRANCH  94  97
ENDBRANCH  83  94
ENDBRANCH  72  74
ENDBRANCH  66  70
ENDBRANCH  61  63
ENDBRANCH  56  59
ENDBRANCH   3  53
TORSDOF 22
ENDMDL
MODEL 4
REMARK VINA RESULT:   -11.378      2.880      6.319
REMARK INTER + INTRA:          20.414
REMARK INTER:                 -23.306
REMARK INTRA:                  43.720
REMARK UNBOUND:                44.430
REMARK SMILES Cc1ccc(C(=O)Nc2ccc(S(=O)(=O)O)c3cc(S(=O)(=O)O)cc(S(=O)(=O)O)c23)cc1NC(=O)c1cccc(NC(=O)Nc2cccc(C(=O)Nc3cc(C(=O)Nc4ccc(S(=O)(=O)O)c5cc(S(=O)(=O)O)cc(S(=O)(=O)O)c45)ccc3C)c2)c1
REMARK SMILES IDX 43 1 41 2 44 3 42 4 40 7 36 8 86 9 37 10 38 11 39 12 34 13
REMARK SMILES IDX 33 14 35 16 32 17 5 18 31 19 4 20 3 21 2 22 1 23 6 24 8 25
REMARK SMILES IDX 7 27 9 28 25 29 30 30 24 31 17 32 19 33 12 34 18 35 10 36
REMARK SMILES IDX 11 37 26 38 27 39 28 40 29 41 20 43 21 44 22 45 23 46 13 48
REMARK SMILES IDX 14 49 15 50 16 51 45 53 85 54 46 55 49 56 47 57 48 58 50 59
REMARK SMILES IDX 51 60 52 61 53 63 54 64 83 65 55 66 82 67 84 68 81 69 56 70
REMARK SMILES IDX 57 71 58 72 59 74 80 75 60 76 67 77 75 78 61 79 62 80 68 81
REMARK SMILES IDX 74 82 69 83 76 84 77 85 78 86 79 87 63 89 64 90 65 91 66 92
REMARK SMILES IDX 70 94 71 95 72 96 73 97
REMARK H PARENT 41 5 44 6 33 15 8 26 29 42 23 47 16 52 52 62 58 73 79 88 66 93
REMARK H PARENT 73 98
REMARK Flexibility Score: inf
ROOT
ATOM      1  O   UNL     1      33.860  -0.280  34.248  1.00  0.00    -0.248 OA
ATOM      2  N   UNL     1      33.092   0.798  35.365  1.00  0.00    -0.308 N 
ATOM      3  N   UNL     1      34.760   1.022  34.953  1.00  0.00    -0.308 N 
ATOM      4  C   UNL     1      33.904   0.513  34.855  1.00  0.00     0.323 C 
ATOM      5  H   UNL     1      33.120   1.290  35.742  1.00  0.00     0.171 HD
ATOM      6  H   UNL     1      34.787   1.513  35.329  1.00  0.00     0.171 HD
ENDROOT
BRANCH   2   7
ATOM      7  C   UNL     1      32.237   0.290  35.268  1.00  0.00     0.043 A 
ATOM      8  C   UNL     1      31.391  -1.218  35.156  1.00  0.00     0.042 A 
ATOM      9  C   UNL     1      32.248  -0.710  35.253  1.00  0.00     0.040 A 
ATOM     10  C   UNL     1      30.525  -0.726  35.074  1.00  0.00     0.014 A 
ATOM     11  C   UNL     1      30.514   0.274  35.090  1.00  0.00     0.003 A 
ATOM     12  C   UNL     1      31.370   0.782  35.187  1.00  0.00     0.026 A 
BRANCH   8  13
ATOM     13  C   UNL     1      31.403  -2.217  35.140  1.00  0.00     0.255 C 
ATOM     14  N   UNL     1      31.465  -2.730  35.996  1.00  0.00    -0.322 N 
ATOM     15  H   UNL     1      31.496  -2.429  36.537  1.00  0.00     0.170 HD
ATOM     16  O   UNL     1      31.352  -2.704  34.268  1.00  0.00    -0.269 OA
BRANCH  14  17
ATOM     17  C   UNL     1      31.476  -3.730  35.979  1.00  0.00     0.045 A 
ATOM     18  C   UNL     1      31.976  -5.213  35.237  1.00  0.00     0.042 A 
ATOM     19  C   UNL     1      31.965  -4.213  35.254  1.00  0.00     0.040 A 
ATOM     20  C   UNL     1      31.499  -5.730  35.947  1.00  0.00     0.014 A 
ATOM     21  C   UNL     1      31.009  -5.247  36.674  1.00  0.00     0.006 A 
ATOM     22  C   UNL     1      30.998  -4.247  36.690  1.00  0.00    -0.027 A 
ATOM     23  C   UNL     1      30.509  -3.764  37.416  1.00  0.00     0.046 C 
BRANCH  18  24
ATOM     24  C   UNL     1      32.466  -5.696  34.511  1.00  0.00     0.255 C 
ATOM     25  N   UNL     1      33.372  -5.383  34.225  1.00  0.00    -0.321 N 
ATOM     26  H   UNL     1      33.630  -4.890  34.498  1.00  0.00     0.170 HD
ATOM     27  O   UNL     1      32.049  -6.491  34.071  1.00  0.00    -0.269 OA
BRANCH  25  28
ATOM     28  C   UNL     1      33.861  -5.866  33.499  1.00  0.00     0.050 A 
ATOM     29  C   UNL     1      33.742  -5.322  31.829  1.00  0.00     0.105 A 
ATOM     30  C   UNL     1      34.114  -5.970  32.493  1.00  0.00     0.028 A 
ATOM     31  C   UNL     1      33.976  -5.410  30.860  1.00  0.00     0.046 A 
ATOM     32  C   UNL     1      34.720  -6.706  32.190  1.00  0.00     0.008 A 
ATOM     33  C   UNL     1      34.582  -6.146  30.557  1.00  0.00     0.096 A 
ATOM     34  C   UNL     1      35.115  -7.388  32.871  1.00  0.00     0.102 A 
ATOM     35  C   UNL     1      34.953  -6.793  31.222  1.00  0.00     0.033 A 
ATOM     36  C   UNL     1      34.245  -6.537  34.197  1.00  0.00     0.028 A 
ATOM     37  C   UNL     1      34.875  -7.302  33.881  1.00  0.00     0.025 A 
BRANCH  29  38
ATOM     38  S   UNL     1      33.177  -4.523  31.620  1.00  0.00     0.295 S 
ATOM     39  O   UNL     1      33.924  -3.922  31.904  1.00  0.00    -0.194 OA
ATOM     40  O   UNL     1      32.431  -5.125  31.336  1.00  0.00    -0.194 OA
BRANCH  38  41
ATOM     41  O   UNL     1      32.613  -3.725  31.411  1.00  0.00    -0.282 OA
ATOM     42  H   UNL     1      32.784  -3.163  31.610  1.00  0.00     0.234 HD
ENDBRANCH  38  41
ENDBRANCH  29  38
BRANCH  33  43
ATOM     43  S   UNL     1      34.816  -6.233  29.589  1.00  0.00     0.294 S 
ATOM     44  O   UNL     1      34.111  -6.934  29.481  1.00  0.00    -0.194 OA
ATOM     45  O   UNL     1      35.521  -5.532  29.697  1.00  0.00    -0.194 OA
BRANCH  43  46
ATOM     46  O   UNL     1      35.050  -6.320  28.621  1.00  0.00    -0.282 OA
ATOM     47  H   UNL     1      34.860  -6.813  28.298  1.00  0.00     0.234 HD
ENDBRANCH  43  46
ENDBRANCH  33  43
BRANCH  34  48
ATOM     48  S   UNL     1      35.720  -8.119  32.557  1.00  0.00     0.295 S 
ATOM     49  O   UNL     1      34.926  -8.706  32.397  1.00  0.00    -0.194 OA
ATOM     50  O   UNL     1      36.514  -7.533  32.717  1.00  0.00    -0.194 OA
BRANCH  48  51
ATOM     51  O   UNL     1      36.324  -8.851  32.242  1.00  0.00    -0.282 OA
ATOM     52  H   UNL     1      36.397  -9.362  32.585  1.00  0.00     0.234 HD
ENDBRANCH  48  51
ENDBRANCH  34  48
ENDBRANCH  25  28
ENDBRANCH  18  24
ENDBRANCH  14  17
ENDBRANCH   8  13
ENDBRANCH   2   7
BRANCH   3  53
ATOM     53  C   UNL     1      35.571   0.737  34.442  1.00  0.00     0.043 A 
ATOM     54  C   UNL     1      35.952  -0.178  34.578  1.00  0.00     0.040 A 
ATOM     55  C   UNL     1      36.002   1.367  33.796  1.00  0.00     0.026 A 
ATOM     56  C   UNL     1      36.764  -0.462  34.067  1.00  0.00     0.042 A 
ATOM     57  C   UNL     1      36.813   1.083  33.285  1.00  0.00     0.003 A 
ATOM     58  C   UNL     1      37.194   0.168  33.421  1.00  0.00     0.014 A 
BRANCH  56  59
ATOM     59  C   UNL     1      37.145  -1.376  34.203  1.00  0.00     0.255 C 
ATOM     60  O   UNL     1      37.962  -1.499  34.767  1.00  0.00    -0.269 OA
ATOM     61  N   UNL     1      36.709  -2.169  33.776  1.00  0.00    -0.322 N 
ATOM     62  H   UNL     1      36.202  -2.093  33.426  1.00  0.00     0.170 HD
BRANCH  61  63
ATOM     63  C   UNL     1      37.090  -3.083  33.912  1.00  0.00     0.045 A 
ATOM     64  C   UNL     1      37.396  -3.368  34.821  1.00  0.00     0.040 A 
ATOM     65  C   UNL     1      37.166  -3.713  33.139  1.00  0.00    -0.027 A 
ATOM     66  C   UNL     1      37.777  -4.282  34.957  1.00  0.00     0.042 A 
ATOM     67  C   UNL     1      37.548  -4.627  33.275  1.00  0.00     0.006 A 
ATOM     68  C   UNL     1      36.861  -3.428  32.230  1.00  0.00     0.046 C 
ATOM     69  C   UNL     1      37.853  -4.912  34.184  1.00  0.00     0.014 A 
BRANCH  66  70
ATOM     70  C   UNL     1      38.082  -4.567  35.866  1.00  0.00     0.255 C 
ATOM     71  O   UNL     1      38.895  -5.140  35.964  1.00  0.00    -0.269 OA
ATOM     72  N   UNL     1      37.573  -4.277  36.676  1.00  0.00    -0.321 N 
ATOM     73  H   UNL     1      37.172  -3.969  36.316  1.00  0.00     0.170 HD
BRANCH  72  74
ATOM     74  C   UNL     1      37.878  -4.561  37.586  1.00  0.00     0.050 A 
ATOM     75  C   UNL     1      37.181  -4.746  38.338  1.00  0.00     0.028 A 
ATOM     76  C   UNL     1      38.893  -4.673  37.787  1.00  0.00     0.028 A 
ATOM     77  C   UNL     1      37.475  -5.030  39.250  1.00  0.00     0.008 A 
ATOM     78  C   UNL     1      36.207  -4.636  38.137  1.00  0.00     0.105 A 
ATOM     79  C   UNL     1      39.199  -4.969  38.737  1.00  0.00     0.025 A 
ATOM     80  C   UNL     1      38.485  -5.149  39.474  1.00  0.00     0.102 A 
ATOM     81  C   UNL     1      36.795  -5.204  39.963  1.00  0.00     0.033 A 
ATOM     82  C   UNL     1      35.528  -4.811  38.849  1.00  0.00     0.046 A 
ATOM     83  C   UNL     1      35.821  -5.095  39.762  1.00  0.00     0.096 A 
BRANCH  78  84
ATOM     84  S   UNL     1      35.476  -4.409  37.495  1.00  0.00     0.295 S 
ATOM     85  O   UNL     1      34.744  -4.181  36.852  1.00  0.00    -0.194 OA
ATOM     86  O   UNL     1      35.568  -3.442  37.732  1.00  0.00    -0.194 OA
BRANCH  84  87
ATOM     87  O   UNL     1      35.384  -5.376  37.257  1.00  0.00    -0.282 OA
ATOM     88  H   UNL     1      35.780  -5.636  36.857  1.00  0.00     0.234 HD
ENDBRANCH  84  87
ENDBRANCH  78  84
BRANCH  80  89
ATOM     89  S   UNL     1      38.769  -5.433  40.390  1.00  0.00     0.295 S 
ATOM     90  O   UNL     1      38.855  -4.475  40.662  1.00  0.00    -0.194 OA
ATOM     91  O   UNL     1      38.682  -6.392  40.118  1.00  0.00    -0.194 OA
BRANCH  89  92
ATOM     92  O   UNL     1      39.052  -5.719  41.306  1.00  0.00    -0.282 OA
ATOM     93  H   UNL     1      39.602  -5.993  41.388  1.00  0.00     0.234 HD
ENDBRANCH  89  92
ENDBRANCH  80  89
BRANCH  83  94
ATOM     94  S   UNL     1      35.142  -5.269  40.474  1.00  0.00     0.294 S 
ATOM     95  O   UNL     1      35.018  -6.199  40.129  1.00  0.00    -0.194 OA
ATOM     96  O   UNL     1      35.265  -4.339  40.820  1.00  0.00    -0.194 OA
BRANCH  94  97
ATOM     97  O   UNL     1      34.462  -5.444  41.187  1.00  0.00    -0.282 OA
ATOM     98  H   UNL     1      34.617  -5.771  41.690  1.00  0.00     0.234 HD
ENDBRANCH  94  97
ENDBRANCH  83  94
ENDBRANCH  72  74
ENDBRANCH  66  70
ENDBRANCH  61  63
ENDBRANCH  56  59
ENDBRANCH   3  53
TORSDOF 22
ENDMDL
MODEL 5
REMARK VINA RESULT:   -11.374      1.905      7.498
REMARK INTER + INTRA:          20.423
REMARK INTER:                 -26.547
REMARK INTRA:                  46.970
REMARK UNBOUND:                44.430
REMARK SMILES Cc1ccc(C(=O)Nc2ccc(S(=O)(=O)O)c3cc(S(=O)(=O)O)cc(S(=O)(=O)O)c23)cc1NC(=O)c1cccc(NC(=O)Nc2cccc(C(=O)Nc3cc(C(=O)Nc4ccc(S(=O)(=O)O)c5cc(S(=O)(=O)O)cc(S(=O)(=O)O)c45)ccc3C)c2)c1
REMARK SMILES IDX 43 1 41 2 44 3 42 4 40 7 36 8 86 9 37 10 38 11 39 12 34 13
REMARK SMILES IDX 33 14 35 16 32 17 5 18 31 19 4 20 3 21 2 22 1 23 6 24 8 25
REMARK SMILES IDX 7 27 9 28 25 29 30 30 24 31 17 32 19 33 12 34 18 35 10 36
REMARK SMILES IDX 11 37 26 38 27 39 28 40 29 41 20 43 21 44 22 45 23 46 13 48
REMARK SMILES IDX 14 49 15 50 16 51 45 53 85 54 46 55 49 56 47 57 48 58 50 59
REMARK SMILES IDX 51 60 52 61 53 63 54 64 83 65 55 66 82 67 84 68 81 69 56 70
REMARK SMILES IDX 57 71 58 72 59 74 80 75 60 76 67 77 75 78 61 79 62 80 68 81
REMARK SMILES IDX 74 82 69 83 76 84 77 85 78 86 79 87 63 89 64 90 65 91 66 92
REMARK SMILES IDX 70 94 71 95 72 96 73 97
REMARK H PARENT 41 5 44 6 33 15 8 26 29 42 23 47 16 52 52 62 58 73 79 88 66 93
REMARK H PARENT 73 98
REMARK Flexibility Score: inf
ROOT
ATOM      1  O   UNL     1      29.369   0.209  34.035  1.00  0.00    -0.248 OA
ATOM      2  N   UNL     1      28.317  -0.641  35.116  1.00  0.00    -0.308 N 
ATOM      3  N   UNL     1      27.651   0.334  33.848  1.00  0.00    -0.308 N 
ATOM      4  C   UNL     1      28.446  -0.033  34.333  1.00  0.00     0.323 C 
ATOM      5  H   UNL     1      27.744  -0.791  35.301  1.00  0.00     0.171 HD
ATOM      6  H   UNL     1      27.079   0.184  34.033  1.00  0.00     0.171 HD
ENDROOT
BRANCH   2   7
ATOM      7  C   UNL     1      29.110  -1.008  35.601  1.00  0.00     0.043 A 
ATOM      8  C   UNL     1      30.375  -2.185  35.736  1.00  0.00     0.042 A 
ATOM      9  C   UNL     1      29.581  -1.818  35.251  1.00  0.00     0.040 A 
ATOM     10  C   UNL     1      30.699  -1.741  36.572  1.00  0.00     0.014 A 
ATOM     11  C   UNL     1      30.228  -0.931  36.922  1.00  0.00     0.003 A 
ATOM     12  C   UNL     1      29.434  -0.564  36.436  1.00  0.00     0.026 A 
BRANCH   8  13
ATOM     13  C   UNL     1      30.844  -2.994  35.386  1.00  0.00     0.255 C 
ATOM     14  N   UNL     1      30.907  -3.819  35.947  1.00  0.00    -0.322 N 
ATOM     15  H   UNL     1      30.655  -3.829  36.514  1.00  0.00     0.170 HD
ATOM     16  O   UNL     1      31.251  -2.979  34.472  1.00  0.00    -0.269 OA
BRANCH  14  17
ATOM     17  C   UNL     1      31.377  -4.628  35.596  1.00  0.00     0.045 A 
ATOM     18  C   UNL     1      32.725  -5.344  34.777  1.00  0.00     0.042 A 
ATOM     19  C   UNL     1      32.255  -4.534  35.129  1.00  0.00     0.040 A 
ATOM     20  C   UNL     1      32.316  -6.248  34.893  1.00  0.00     0.014 A 
ATOM     21  C   UNL     1      31.437  -6.344  35.360  1.00  0.00     0.006 A 
ATOM     22  C   UNL     1      30.967  -5.534  35.711  1.00  0.00    -0.027 A 
ATOM     23  C   UNL     1      30.088  -5.628  36.178  1.00  0.00     0.046 C 
BRANCH  18  24
ATOM     24  C   UNL     1      33.605  -5.248  34.310  1.00  0.00     0.255 C 
ATOM     25  N   UNL     1      33.694  -4.621  33.536  1.00  0.00    -0.321 N 
ATOM     26  H   UNL     1      33.205  -4.292  33.346  1.00  0.00     0.170 HD
ATOM     27  O   UNL     1      34.394  -5.780  34.617  1.00  0.00    -0.269 OA
BRANCH  25  28
ATOM     28  C   UNL     1      34.573  -4.526  33.069  1.00  0.00     0.050 A 
ATOM     29  C   UNL     1      34.896  -5.417  31.586  1.00  0.00     0.105 A 
ATOM     30  C   UNL     1      35.211  -4.773  32.283  1.00  0.00     0.028 A 
ATOM     31  C   UNL     1      35.498  -5.662  30.825  1.00  0.00     0.046 A 
ATOM     32  C   UNL     1      36.127  -4.375  32.221  1.00  0.00     0.008 A 
ATOM     33  C   UNL     1      36.414  -5.265  30.763  1.00  0.00     0.096 A 
ATOM     34  C   UNL     1      36.467  -3.703  32.940  1.00  0.00     0.102 A 
ATOM     35  C   UNL     1      36.727  -4.621  31.461  1.00  0.00     0.033 A 
ATOM     36  C   UNL     1      34.894  -3.857  33.800  1.00  0.00     0.028 A 
ATOM     37  C   UNL     1      35.847  -3.443  33.735  1.00  0.00     0.025 A 
BRANCH  29  38
ATOM     38  S   UNL     1      34.186  -6.018  31.219  1.00  0.00     0.295 S 
ATOM     39  O   UNL     1      33.753  -5.234  30.774  1.00  0.00    -0.194 OA
ATOM     40  O   UNL     1      34.620  -6.802  31.664  1.00  0.00    -0.194 OA
BRANCH  38  41
ATOM     41  O   UNL     1      33.476  -6.619  30.852  1.00  0.00    -0.282 OA
ATOM     42  H   UNL     1      33.560  -7.234  30.853  1.00  0.00     0.234 HD
ENDBRANCH  38  41
ENDBRANCH  29  38
BRANCH  33  43
ATOM     43  S   UNL     1      37.014  -5.511  30.002  1.00  0.00     0.294 S 
ATOM     44  O   UNL     1      36.522  -4.875  29.407  1.00  0.00    -0.194 OA
ATOM     45  O   UNL     1      37.505  -6.147  30.598  1.00  0.00    -0.194 OA
BRANCH  43  46
ATOM     46  O   UNL     1      37.615  -5.758  29.242  1.00  0.00    -0.282 OA
ATOM     47  H   UNL     1      37.460  -5.606  28.662  1.00  0.00     0.234 HD
ENDBRANCH  43  46
ENDBRANCH  33  43
BRANCH  34  48
ATOM     48  S   UNL     1      37.385  -3.312  32.867  1.00  0.00     0.295 S 
ATOM     49  O   UNL     1      37.023  -2.571  32.301  1.00  0.00    -0.194 OA
ATOM     50  O   UNL     1      37.747  -4.053  33.433  1.00  0.00    -0.194 OA
BRANCH  48  51
ATOM     51  O   UNL     1      38.302  -2.920  32.794  1.00  0.00    -0.282 OA
ATOM     52  H   UNL     1      38.394  -2.407  32.458  1.00  0.00     0.234 HD
ENDBRANCH  48  51
ENDBRANCH  34  48
ENDBRANCH  25  28
ENDBRANCH  18  24
ENDBRANCH  14  17
ENDBRANCH   8  13
ENDBRANCH   2   7
BRANCH   3  53
ATOM     53  C   UNL     1      27.781   0.942  33.065  1.00  0.00     0.043 A 
ATOM     54  C   UNL     1      28.678   1.347  32.889  1.00  0.00     0.040 A 
ATOM     55  C   UNL     1      27.013   1.146  32.458  1.00  0.00     0.026 A 
ATOM     56  C   UNL     1      28.807   1.956  32.106  1.00  0.00     0.042 A 
ATOM     57  C   UNL     1      27.142   1.754  31.675  1.00  0.00     0.003 A 
ATOM     58  C   UNL     1      28.039   2.159  31.499  1.00  0.00     0.014 A 
BRANCH  56  59
ATOM     59  C   UNL     1      29.704   2.361  31.930  1.00  0.00     0.255 C 
ATOM     60  O   UNL     1      30.463   1.783  31.629  1.00  0.00    -0.269 OA
ATOM     61  N   UNL     1      29.843   3.343  32.055  1.00  0.00    -0.322 N 
ATOM     62  H   UNL     1      29.372   3.701  32.242  1.00  0.00     0.170 HD
BRANCH  61  63
ATOM     63  C   UNL     1      30.740   3.748  31.879  1.00  0.00     0.045 A 
ATOM     64  C   UNL     1      31.571   3.224  32.065  1.00  0.00     0.040 A 
ATOM     65  C   UNL     1      30.806   4.678  31.517  1.00  0.00    -0.027 A 
ATOM     66  C   UNL     1      32.468   3.629  31.889  1.00  0.00     0.042 A 
ATOM     67  C   UNL     1      31.703   5.083  31.341  1.00  0.00     0.006 A 
ATOM     68  C   UNL     1      29.975   5.202  31.331  1.00  0.00     0.046 C 
ATOM     69  C   UNL     1      32.534   4.558  31.527  1.00  0.00     0.014 A 
BRANCH  66  70
ATOM     70  C   UNL     1      33.299   3.104  32.075  1.00  0.00     0.255 C 
ATOM     71  O   UNL     1      33.954   2.927  31.341  1.00  0.00    -0.269 OA
ATOM     72  N   UNL     1      33.474   2.757  32.996  1.00  0.00    -0.321 N 
ATOM     73  H   UNL     1      32.942   3.008  33.193  1.00  0.00     0.170 HD
BRANCH  72  74
ATOM     74  C   UNL     1      34.304   2.231  33.184  1.00  0.00     0.050 A 
ATOM     75  C   UNL     1      34.314   1.520  33.944  1.00  0.00     0.028 A 
ATOM     76  C   UNL     1      35.165   2.393  32.619  1.00  0.00     0.028 A 
ATOM     77  C   UNL     1      35.139   0.989  34.139  1.00  0.00     0.008 A 
ATOM     78  C   UNL     1      33.485   1.370  34.481  1.00  0.00     0.105 A 
ATOM     79  C   UNL     1      36.024   1.841  32.823  1.00  0.00     0.025 A 
ATOM     80  C   UNL     1      36.011   1.134  33.588  1.00  0.00     0.102 A 
ATOM     81  C   UNL     1      35.135   0.309  34.872  1.00  0.00     0.033 A 
ATOM     82  C   UNL     1      33.480   0.690  35.214  1.00  0.00     0.046 A 
ATOM     83  C   UNL     1      34.305   0.159  35.410  1.00  0.00     0.096 A 
BRANCH  78  84
ATOM     84  S   UNL     1      32.529   1.590  34.679  1.00  0.00     0.295 S 
ATOM     85  O   UNL     1      31.574   1.809  34.877  1.00  0.00    -0.194 OA
ATOM     86  O   UNL     1      32.824   2.340  35.271  1.00  0.00    -0.194 OA
BRANCH  84  87
ATOM     87  O   UNL     1      32.234   0.839  34.088  1.00  0.00    -0.282 OA
ATOM     88  H   UNL     1      31.631   0.754  33.972  1.00  0.00     0.234 HD
ENDBRANCH  84  87
ENDBRANCH  78  84
BRANCH  80  89
ATOM     89  S   UNL     1      36.831   0.599  33.791  1.00  0.00     0.295 S 
ATOM     90  O   UNL     1      36.577  -0.061  33.083  1.00  0.00    -0.194 OA
ATOM     91  O   UNL     1      37.085   1.258  34.499  1.00  0.00    -0.194 OA
BRANCH  89  92
ATOM     92  O   UNL     1      37.651   0.064  33.995  1.00  0.00    -0.282 OA
ATOM     93  H   UNL     1      37.701  -0.231  34.539  1.00  0.00     0.234 HD
ENDBRANCH  89  92
ENDBRANCH  80  89
BRANCH  83  94
ATOM     94  S   UNL     1      34.300  -0.521  36.143  1.00  0.00     0.294 S 
ATOM     95  O   UNL     1      33.895  -1.190  35.519  1.00  0.00    -0.194 OA
ATOM     96  O   UNL     1      34.705   0.148  36.766  1.00  0.00    -0.194 OA
BRANCH  94  97
ATOM     97  O   UNL     1      34.295  -1.201  36.876  1.00  0.00    -0.282 OA
ATOM     98  H   UNL     1      34.005  -1.080  37.410  1.00  0.00     0.234 HD
ENDBRANCH  94  97
ENDBRANCH  83  94
ENDBRANCH  72  74
ENDBRANCH  66  70
ENDBRANCH  61  63
ENDBRANCH  56  59
ENDBRANCH   3  53
TORSDOF 22
ENDMDL
MODEL 6
REMARK VINA RESULT:   -11.236      3.024      6.700
REMARK INTER + INTRA:          20.712
REMARK INTER:                 -24.109
REMARK INTRA:                  44.822
REMARK UNBOUND:                44.430
REMARK SMILES Cc1ccc(C(=O)Nc2ccc(S(=O)(=O)O)c3cc(S(=O)(=O)O)cc(S(=O)(=O)O)c23)cc1NC(=O)c1cccc(NC(=O)Nc2cccc(C(=O)Nc3cc(C(=O)Nc4ccc(S(=O)(=O)O)c5cc(S(=O)(=O)O)cc(S(=O)(=O)O)c45)ccc3C)c2)c1
REMARK SMILES IDX 43 1 41 2 44 3 42 4 40 7 36 8 86 9 37 10 38 11 39 12 34 13
REMARK SMILES IDX 33 14 35 16 32 17 5 18 31 19 4 20 3 21 2 22 1 23 6 24 8 25
REMARK SMILES IDX 7 27 9 28 25 29 30 30 24 31 17 32 19 33 12 34 18 35 10 36
REMARK SMILES IDX 11 37 26 38 27 39 28 40 29 41 20 43 21 44 22 45 23 46 13 48
REMARK SMILES IDX 14 49 15 50 16 51 45 53 85 54 46 55 49 56 47 57 48 58 50 59
REMARK SMILES IDX 51 60 52 61 53 63 54 64 83 65 55 66 82 67 84 68 81 69 56 70
REMARK SMILES IDX 57 71 58 72 59 74 80 75 60 76 67 77 75 78 61 79 62 80 68 81
REMARK SMILES IDX 74 82 69 83 76 84 77 85 78 86 79 87 63 89 64 90 65 91 66 92
REMARK SMILES IDX 70 94 71 95 72 96 73 97
REMARK H PARENT 41 5 44 6 33 15 8 26 29 42 23 47 16 52 52 62 58 73 79 88 66 93
REMARK H PARENT 73 98
REMARK Flexibility Score: inf
ROOT
ATOM      1  O   UNL     1      34.128  -0.333  34.049  1.00  0.00    -0.248 OA
ATOM      2  N   UNL     1      34.967   0.892  34.941  1.00  0.00    -0.308 N 
ATOM      3  N   UNL     1      33.242   0.772  35.046  1.00  0.00    -0.308 N 
ATOM      4  C   UNL     1      34.112   0.444  34.679  1.00  0.00     0.323 C 
ATOM      5  H   UNL     1      34.957   1.374  35.332  1.00  0.00     0.171 HD
ATOM      6  H   UNL     1      33.232   1.253  35.436  1.00  0.00     0.171 HD
ENDROOT
BRANCH   2   7
ATOM      7  C   UNL     1      35.837   0.564  34.574  1.00  0.00     0.043 A 
ATOM      8  C   UNL     1      36.979  -0.717  34.338  1.00  0.00     0.042 A 
ATOM      9  C   UNL     1      36.109  -0.389  34.706  1.00  0.00     0.040 A 
ATOM     10  C   UNL     1      37.579  -0.091  33.840  1.00  0.00     0.014 A 
ATOM     11  C   UNL     1      37.307   0.863  33.708  1.00  0.00     0.003 A 
ATOM     12  C   UNL     1      36.436   1.190  34.076  1.00  0.00     0.026 A 
BRANCH   8  13
ATOM     13  C   UNL     1      37.250  -1.669  34.470  1.00  0.00     0.255 C 
ATOM     14  N   UNL     1      36.796  -2.395  33.953  1.00  0.00    -0.322 N 
ATOM     15  H   UNL     1      36.346  -2.254  33.550  1.00  0.00     0.170 HD
ATOM     16  O   UNL     1      37.975  -1.898  35.120  1.00  0.00    -0.269 OA
BRANCH  14  17
ATOM     17  C   UNL     1      37.067  -3.348  34.085  1.00  0.00     0.045 A 
ATOM     18  C   UNL     1      37.336  -4.700  35.135  1.00  0.00     0.042 A 
ATOM     19  C   UNL     1      37.064  -3.746  35.002  1.00  0.00     0.040 A 
ATOM     20  C   UNL     1      37.610  -5.255  34.350  1.00  0.00     0.014 A 
ATOM     21  C   UNL     1      37.614  -4.857  33.432  1.00  0.00     0.006 A 
ATOM     22  C   UNL     1      37.342  -3.903  33.299  1.00  0.00    -0.027 A 
ATOM     23  C   UNL     1      37.345  -3.505  32.383  1.00  0.00     0.046 C 
BRANCH  18  24
ATOM     24  C   UNL     1      37.332  -5.098  36.052  1.00  0.00     0.255 C 
ATOM     25  N   UNL     1      37.463  -4.512  36.852  1.00  0.00    -0.321 N 
ATOM     26  H   UNL     1      37.546  -3.902  36.779  1.00  0.00     0.170 HD
ATOM     27  O   UNL     1      37.198  -6.082  36.169  1.00  0.00    -0.269 OA
BRANCH  25  28
ATOM     28  C   UNL     1      37.460  -4.910  37.769  1.00  0.00     0.050 A 
ATOM     29  C   UNL     1      35.964  -5.012  38.692  1.00  0.00     0.105 A 
ATOM     30  C   UNL     1      36.948  -5.184  38.634  1.00  0.00     0.028 A 
ATOM     31  C   UNL     1      35.460  -5.270  39.516  1.00  0.00     0.046 A 
ATOM     32  C   UNL     1      37.427  -5.613  39.400  1.00  0.00     0.008 A 
ATOM     33  C   UNL     1      35.939  -5.699  40.282  1.00  0.00     0.096 A 
ATOM     34  C   UNL     1      38.451  -5.797  39.354  1.00  0.00     0.102 A 
ATOM     35  C   UNL     1      36.922  -5.870  40.224  1.00  0.00     0.033 A 
ATOM     36  C   UNL     1      38.484  -5.085  37.701  1.00  0.00     0.028 A 
ATOM     37  C   UNL     1      38.983  -5.532  38.499  1.00  0.00     0.025 A 
BRANCH  29  38
ATOM     38  S   UNL     1      35.120  -4.666  38.283  1.00  0.00     0.295 S 
ATOM     39  O   UNL     1      35.362  -3.738  38.570  1.00  0.00    -0.194 OA
ATOM     40  O   UNL     1      34.878  -5.593  37.996  1.00  0.00    -0.194 OA
BRANCH  38  41
ATOM     41  O   UNL     1      34.276  -4.319  37.874  1.00  0.00    -0.282 OA
ATOM     42  H   UNL     1      33.917  -3.925  38.191  1.00  0.00     0.234 HD
ENDBRANCH  38  41
ENDBRANCH  29  38
BRANCH  33  43
ATOM     43  S   UNL     1      35.434  -5.956  41.106  1.00  0.00     0.294 S 
ATOM     44  O   UNL     1      35.371  -6.897  40.774  1.00  0.00    -0.194 OA
ATOM     45  O   UNL     1      35.497  -5.014  41.437  1.00  0.00    -0.194 OA
BRANCH  43  46
ATOM     46  O   UNL     1      34.929  -6.212  41.930  1.00  0.00    -0.282 OA
ATOM     47  H   UNL     1      34.774  -6.804  42.028  1.00  0.00     0.234 HD
ENDBRANCH  43  46
ENDBRANCH  33  43
BRANCH  34  48
ATOM     48  S   UNL     1      38.920  -6.226  40.126  1.00  0.00     0.295 S 
ATOM     49  O   UNL     1      39.054  -5.328  40.544  1.00  0.00    -0.194 OA
ATOM     50  O   UNL     1      38.785  -7.125  39.709  1.00  0.00    -0.194 OA
BRANCH  48  51
ATOM     51  O   UNL     1      39.388  -6.655  40.899  1.00  0.00    -0.282 OA
ATOM     52  H   UNL     1      39.665  -6.303  41.327  1.00  0.00     0.234 HD
ENDBRANCH  48  51
ENDBRANCH  34  48
ENDBRANCH  25  28
ENDBRANCH  18  24
ENDBRANCH  14  17
ENDBRANCH   8  13
ENDBRANCH   2   7
BRANCH   3  53
ATOM     53  C   UNL     1      32.388   0.323  34.783  1.00  0.00     0.043 A 
ATOM     54  C   UNL     1      32.295  -0.668  34.874  1.00  0.00     0.040 A 
ATOM     55  C   UNL     1      31.626   0.867  34.429  1.00  0.00     0.026 A 
ATOM     56  C   UNL     1      31.440  -1.116  34.610  1.00  0.00     0.042 A 
ATOM     57  C   UNL     1      30.772   0.419  34.166  1.00  0.00     0.003 A 
ATOM     58  C   UNL     1      30.679  -0.572  34.257  1.00  0.00     0.014 A 
BRANCH  56  59
ATOM     59  C   UNL     1      31.347  -2.107  34.701  1.00  0.00     0.255 C 
ATOM     60  O   UNL     1      30.827  -2.625  34.021  1.00  0.00    -0.269 OA
ATOM     61  N   UNL     1      31.774  -2.582  35.471  1.00  0.00    -0.322 N 
ATOM     62  H   UNL     1      32.096  -2.261  35.893  1.00  0.00     0.170 HD
BRANCH  61  63
ATOM     63  C   UNL     1      31.681  -3.573  35.562  1.00  0.00     0.045 A 
ATOM     64  C   UNL     1      32.291  -4.182  35.055  1.00  0.00     0.040 A 
ATOM     65  C   UNL     1      30.977  -3.957  36.160  1.00  0.00    -0.027 A 
ATOM     66  C   UNL     1      32.198  -5.173  35.145  1.00  0.00     0.042 A 
ATOM     67  C   UNL     1      30.884  -4.948  36.250  1.00  0.00     0.006 A 
ATOM     68  C   UNL     1      30.366  -3.348  36.667  1.00  0.00     0.046 C 
ATOM     69  C   UNL     1      31.495  -5.556  35.743  1.00  0.00     0.014 A 
BRANCH  66  70
ATOM     70  C   UNL     1      32.809  -5.781  34.638  1.00  0.00     0.255 C 
ATOM     71  O   UNL     1      32.974  -6.712  34.965  1.00  0.00    -0.269 OA
ATOM     72  N   UNL     1      33.256  -5.458  33.804  1.00  0.00    -0.321 N 
ATOM     73  H   UNL     1      32.978  -4.906  33.868  1.00  0.00     0.170 HD
BRANCH  72  74
ATOM     74  C   UNL     1      33.867  -6.065  33.295  1.00  0.00     0.050 A 
ATOM     75  C   UNL     1      34.152  -5.827  32.323  1.00  0.00     0.028 A 
ATOM     76  C   UNL     1      34.222  -6.939  33.736  1.00  0.00     0.028 A 
ATOM     77  C   UNL     1      34.763  -6.427  31.806  1.00  0.00     0.008 A 
ATOM     78  C   UNL     1      33.807  -4.986  31.906  1.00  0.00     0.105 A 
ATOM     79  C   UNL     1      34.858  -7.564  33.198  1.00  0.00     0.025 A 
ATOM     80  C   UNL     1      35.130  -7.306  32.226  1.00  0.00     0.102 A 
ATOM     81  C   UNL     1      35.028  -6.186  30.872  1.00  0.00     0.033 A 
ATOM     82  C   UNL     1      34.072  -4.745  30.972  1.00  0.00     0.046 A 
ATOM     83  C   UNL     1      34.683  -5.345  30.456  1.00  0.00     0.096 A 
BRANCH  78  84
ATOM     84  S   UNL     1      33.255  -4.154  31.963  1.00  0.00     0.295 S 
ATOM     85  O   UNL     1      32.703  -3.322  32.021  1.00  0.00    -0.194 OA
ATOM     86  O   UNL     1      34.030  -3.668  32.367  1.00  0.00    -0.194 OA
BRANCH  84  87
ATOM     87  O   UNL     1      32.480  -4.640  31.560  1.00  0.00    -0.282 OA
ATOM     88  H   UNL     1      32.193  -5.086  31.881  1.00  0.00     0.234 HD
ENDBRANCH  84  87
ENDBRANCH  78  84
BRANCH  80  89
ATOM     89  S   UNL     1      35.740  -7.899  31.701  1.00  0.00     0.295 S 
ATOM     90  O   UNL     1      36.531  -7.396  32.049  1.00  0.00    -0.194 OA
ATOM     91  O   UNL     1      34.950  -8.403  31.353  1.00  0.00    -0.194 OA
BRANCH  89  92
ATOM     92  O   UNL     1      36.350  -8.493  31.176  1.00  0.00    -0.282 OA
ATOM     93  H   UNL     1      36.221  -8.621  30.582  1.00  0.00     0.234 HD
ENDBRANCH  89  92
ENDBRANCH  80  89
BRANCH  83  94
ATOM     94  S   UNL     1      34.949  -5.104  29.522  1.00  0.00     0.294 S 
ATOM     95  O   UNL     1      35.830  -4.772  29.858  1.00  0.00    -0.194 OA
ATOM     96  O   UNL     1      34.067  -5.436  29.186  1.00  0.00    -0.194 OA
BRANCH  94  97
ATOM     97  O   UNL     1      35.214  -4.863  28.589  1.00  0.00    -0.282 OA
ATOM     98  H   UNL     1      35.520  -5.273  28.238  1.00  0.00     0.234 HD
ENDBRANCH  94  97
ENDBRANCH  83  94
ENDBRANCH  72  74
ENDBRANCH  66  70
ENDBRANCH  61  63
ENDBRANCH  56  59
ENDBRANCH   3  53
TORSDOF 22
ENDMDL
MODEL 7
REMARK VINA RESULT:   -11.223      3.977      9.297
REMARK INTER + INTRA:          20.741
REMARK INTER:                 -23.938
REMARK INTRA:                  44.679
REMARK UNBOUND:                44.430
REMARK SMILES Cc1ccc(C(=O)Nc2ccc(S(=O)(=O)O)c3cc(S(=O)(=O)O)cc(S(=O)(=O)O)c23)cc1NC(=O)c1cccc(NC(=O)Nc2cccc(C(=O)Nc3cc(C(=O)Nc4ccc(S(=O)(=O)O)c5cc(S(=O)(=O)O)cc(S(=O)(=O)O)c45)ccc3C)c2)c1
REMARK SMILES IDX 43 1 41 2 44 3 42 4 40 7 36 8 86 9 37 10 38 11 39 12 34 13
REMARK SMILES IDX 33 14 35 16 32 17 5 18 31 19 4 20 3 21 2 22 1 23 6 24 8 25
REMARK SMILES IDX 7 27 9 28 25 29 30 30 24 31 17 32 19 33 12 34 18 35 10 36
REMARK SMILES IDX 11 37 26 38 27 39 28 40 29 41 20 43 21 44 22 45 23 46 13 48
REMARK SMILES IDX 14 49 15 50 16 51 45 53 85 54 46 55 49 56 47 57 48 58 50 59
REMARK SMILES IDX 51 60 52 61 53 63 54 64 83 65 55 66 82 67 84 68 81 69 56 70
REMARK SMILES IDX 57 71 58 72 59 74 80 75 60 76 67 77 75 78 61 79 62 80 68 81
REMARK SMILES IDX 74 82 69 83 76 84 77 85 78 86 79 87 63 89 64 90 65 91 66 92
REMARK SMILES IDX 70 94 71 95 72 96 73 97
REMARK H PARENT 41 5 44 6 33 15 8 26 29 42 23 47 16 52 52 62 58 73 79 88 66 93
REMARK H PARENT 73 98
REMARK Flexibility Score: inf
ROOT
ATOM      1  O   UNL     1      36.077  -4.419  38.660  1.00  0.00    -0.248 OA
ATOM      2  N   UNL     1      35.783  -5.830  39.620  1.00  0.00    -0.308 N 
ATOM      3  N   UNL     1      34.640  -4.527  39.621  1.00  0.00    -0.308 N 
ATOM      4  C   UNL     1      35.500  -4.925  39.300  1.00  0.00     0.323 C 
ATOM      5  H   UNL     1      35.424  -6.143  40.018  1.00  0.00     0.171 HD
ATOM      6  H   UNL     1      34.282  -4.841  40.018  1.00  0.00     0.171 HD
ENDROOT
BRANCH   2   7
ATOM      7  C   UNL     1      36.642  -6.228  39.300  1.00  0.00     0.043 A 
ATOM      8  C   UNL     1      37.576  -6.972  38.045  1.00  0.00     0.042 A 
ATOM      9  C   UNL     1      36.716  -6.574  38.365  1.00  0.00     0.040 A 
ATOM     10  C   UNL     1      38.362  -7.024  38.661  1.00  0.00     0.014 A 
ATOM     11  C   UNL     1      38.288  -6.678  39.596  1.00  0.00     0.003 A 
ATOM     12  C   UNL     1      37.428  -6.280  39.916  1.00  0.00     0.026 A 
BRANCH   8  13
ATOM     13  C   UNL     1      37.649  -7.317  37.111  1.00  0.00     0.255 C 
ATOM     14  N   UNL     1      36.984  -7.035  36.420  1.00  0.00    -0.322 N 
ATOM     15  H   UNL     1      36.525  -6.646  36.570  1.00  0.00     0.170 HD
ATOM     16  O   UNL     1      38.387  -7.946  36.867  1.00  0.00    -0.269 OA
BRANCH  14  17
ATOM     17  C   UNL     1      37.057  -7.382  35.484  1.00  0.00     0.045 A 
ATOM     18  C   UNL     1      37.158  -8.713  34.381  1.00  0.00     0.042 A 
ATOM     19  C   UNL     1      37.084  -8.366  35.316  1.00  0.00     0.040 A 
ATOM     20  C   UNL     1      37.205  -8.073  33.613  1.00  0.00     0.014 A 
ATOM     21  C   UNL     1      37.178  -7.088  33.781  1.00  0.00     0.006 A 
ATOM     22  C   UNL     1      37.104  -6.741  34.717  1.00  0.00    -0.027 A 
ATOM     23  C   UNL     1      37.077  -5.757  34.885  1.00  0.00     0.046 C 
BRANCH  18  24
ATOM     24  C   UNL     1      37.185  -9.698  34.213  1.00  0.00     0.255 C 
ATOM     25  N   UNL     1      36.378 -10.165  33.850  1.00  0.00    -0.321 N 
ATOM     26  H   UNL     1      35.862  -9.845  33.730  1.00  0.00     0.170 HD
ATOM     27  O   UNL     1      38.018 -10.216  34.407  1.00  0.00    -0.269 OA
BRANCH  25  28
ATOM     28  C   UNL     1      36.405 -11.151  33.683  1.00  0.00     0.050 A 
ATOM     29  C   UNL     1      36.853 -11.774  32.098  1.00  0.00     0.105 A 
ATOM     30  C   UNL     1      36.574 -11.955  33.042  1.00  0.00     0.028 A 
ATOM     31  C   UNL     1      37.019 -12.537  31.472  1.00  0.00     0.046 A 
ATOM     32  C   UNL     1      36.460 -12.897  33.358  1.00  0.00     0.008 A 
ATOM     33  C   UNL     1      36.905 -13.478  31.789  1.00  0.00     0.096 A 
ATOM     34  C   UNL     1      36.170 -13.100  34.338  1.00  0.00     0.102 A 
ATOM     35  C   UNL     1      36.626 -13.657  32.732  1.00  0.00     0.033 A 
ATOM     36  C   UNL     1      36.114 -11.331  34.666  1.00  0.00     0.028 A 
ATOM     37  C   UNL     1      35.996 -12.311  34.996  1.00  0.00     0.025 A 
BRANCH  29  38
ATOM     38  S   UNL     1      37.080 -11.126  31.371  1.00  0.00     0.295 S 
ATOM     39  O   UNL     1      38.049 -11.203  31.606  1.00  0.00    -0.194 OA
ATOM     40  O   UNL     1      36.111 -11.051  31.136  1.00  0.00    -0.194 OA
BRANCH  38  41
ATOM     41  O   UNL     1      37.307 -10.479  30.643  1.00  0.00    -0.282 OA
ATOM     42  H   UNL     1      37.170 -10.614  30.054  1.00  0.00     0.234 HD
ENDBRANCH  38  41
ENDBRANCH  29  38
BRANCH  33  43
ATOM     43  S   UNL     1      37.071 -14.239  31.162  1.00  0.00     0.294 S 
ATOM     44  O   UNL     1      38.028 -14.269  31.450  1.00  0.00    -0.194 OA
ATOM     45  O   UNL     1      36.114 -14.209  30.874  1.00  0.00    -0.194 OA
BRANCH  43  46
ATOM     46  O   UNL     1      37.236 -15.000  30.534  1.00  0.00    -0.282 OA
ATOM     47  H   UNL     1      37.579 -14.914  30.026  1.00  0.00     0.234 HD
ENDBRANCH  43  46
ENDBRANCH  33  43
BRANCH  34  48
ATOM     48  S   UNL     1      36.060 -14.045  34.644  1.00  0.00     0.295 S 
ATOM     49  O   UNL     1      37.018 -14.065  34.929  1.00  0.00    -0.194 OA
ATOM     50  O   UNL     1      35.101 -14.027  34.358  1.00  0.00    -0.194 OA
BRANCH  48  51
ATOM     51  O   UNL     1      35.950 -14.991  34.950  1.00  0.00    -0.282 OA
ATOM     52  H   UNL     1      35.389 -15.253  34.952  1.00  0.00     0.234 HD
ENDBRANCH  48  51
ENDBRANCH  34  48
ENDBRANCH  25  28
ENDBRANCH  18  24
ENDBRANCH  14  17
ENDBRANCH   8  13
ENDBRANCH   2   7
BRANCH   3  53
ATOM     53  C   UNL     1      34.358  -3.623  39.300  1.00  0.00     0.043 A 
ATOM     54  C   UNL     1      34.253  -3.450  38.321  1.00  0.00     0.040 A 
ATOM     55  C   UNL     1      34.180  -2.892  39.959  1.00  0.00     0.026 A 
ATOM     56  C   UNL     1      33.971  -2.545  38.001  1.00  0.00     0.042 A 
ATOM     57  C   UNL     1      33.898  -1.988  39.640  1.00  0.00     0.003 A 
ATOM     58  C   UNL     1      33.793  -1.814  38.660  1.00  0.00     0.014 A 
BRANCH  56  59
ATOM     59  C   UNL     1      33.866  -2.371  37.022  1.00  0.00     0.255 C 
ATOM     60  O   UNL     1      34.547  -1.824  36.536  1.00  0.00    -0.269 OA
ATOM     61  N   UNL     1      33.081  -2.745  36.529  1.00  0.00    -0.322 N 
ATOM     62  H   UNL     1      32.658  -3.085  36.830  1.00  0.00     0.170 HD
BRANCH  61  63
ATOM     63  C   UNL     1      32.976  -2.571  35.549  1.00  0.00     0.045 A 
ATOM     64  C   UNL     1      33.670  -2.896  34.907  1.00  0.00     0.040 A 
ATOM     65  C   UNL     1      32.177  -2.073  35.213  1.00  0.00    -0.027 A 
ATOM     66  C   UNL     1      33.565  -2.722  33.927  1.00  0.00     0.042 A 
ATOM     67  C   UNL     1      32.072  -1.899  34.234  1.00  0.00     0.006 A 
ATOM     68  C   UNL     1      31.483  -1.748  35.856  1.00  0.00     0.046 C 
ATOM     69  C   UNL     1      32.767  -2.224  33.591  1.00  0.00     0.014 A 
BRANCH  66  70
ATOM     70  C   UNL     1      34.259  -3.047  33.285  1.00  0.00     0.255 C 
ATOM     71  O   UNL     1      35.046  -2.470  33.064  1.00  0.00    -0.269 OA
ATOM     72  N   UNL     1      34.168  -3.949  32.864  1.00  0.00    -0.321 N 
ATOM     73  H   UNL     1      33.637  -4.040  33.174  1.00  0.00     0.170 HD
BRANCH  72  74
ATOM     74  C   UNL     1      34.861  -4.275  32.222  1.00  0.00     0.050 A 
ATOM     75  C   UNL     1      34.790  -5.230  31.814  1.00  0.00     0.028 A 
ATOM     76  C   UNL     1      35.660  -3.661  31.957  1.00  0.00     0.028 A 
ATOM     77  C   UNL     1      35.479  -5.566  31.170  1.00  0.00     0.008 A 
ATOM     78  C   UNL     1      34.021  -5.815  32.072  1.00  0.00     0.105 A 
ATOM     79  C   UNL     1      36.377  -4.010  31.288  1.00  0.00     0.025 A 
ATOM     80  C   UNL     1      36.286  -4.969  30.891  1.00  0.00     0.102 A 
ATOM     81  C   UNL     1      35.398  -6.485  30.786  1.00  0.00     0.033 A 
ATOM     82  C   UNL     1      33.940  -6.734  31.688  1.00  0.00     0.046 A 
ATOM     83  C   UNL     1      34.628  -7.070  31.045  1.00  0.00     0.096 A 
BRANCH  78  84
ATOM     84  S   UNL     1      33.179  -5.958  32.593  1.00  0.00     0.295 S 
ATOM     85  O   UNL     1      32.338  -6.102  33.113  1.00  0.00    -0.194 OA
ATOM     86  O   UNL     1      32.647  -5.573  31.839  1.00  0.00    -0.194 OA
BRANCH  84  87
ATOM     87  O   UNL     1      33.711  -6.344  33.347  1.00  0.00    -0.282 OA
ATOM     88  H   UNL     1      33.797  -6.957  33.384  1.00  0.00     0.234 HD
ENDBRANCH  84  87
ENDBRANCH  78  84
BRANCH  80  89
ATOM     89  S   UNL     1      36.969  -5.314  30.247  1.00  0.00     0.295 S 
ATOM     90  O   UNL     1      37.539  -5.615  31.012  1.00  0.00    -0.194 OA
ATOM     91  O   UNL     1      36.398  -5.013  29.483  1.00  0.00    -0.194 OA
BRANCH  89  92
ATOM     92  O   UNL     1      37.651  -5.659  29.603  1.00  0.00    -0.282 OA
ATOM     93  H   UNL     1      37.670  -6.263  29.465  1.00  0.00     0.234 HD
ENDBRANCH  89  92
ENDBRANCH  80  89
BRANCH  83  94
ATOM     94  S   UNL     1      34.547  -7.989  30.660  1.00  0.00     0.294 S 
ATOM     95  O   UNL     1      34.172  -7.604  29.817  1.00  0.00    -0.194 OA
ATOM     96  O   UNL     1      34.923  -8.375  31.503  1.00  0.00    -0.194 OA
BRANCH  94  97
ATOM     97  O   UNL     1      34.467  -8.909  30.276  1.00  0.00    -0.282 OA
ATOM     98  H   UNL     1      34.911  -9.328  30.380  1.00  0.00     0.234 HD
ENDBRANCH  94  97
ENDBRANCH  83  94
ENDBRANCH  72  74
ENDBRANCH  66  70
ENDBRANCH  61  63
ENDBRANCH  56  59
ENDBRANCH   3  53
TORSDOF 22
ENDMDL
MODEL 8
REMARK VINA RESULT:   -11.218      2.996      6.378
REMARK INTER + INTRA:          20.752
REMARK INTER:                 -21.883
REMARK INTRA:                  42.635
REMARK UNBOUND:                44.430
REMARK SMILES Cc1ccc(C(=O)Nc2ccc(S(=O)(=O)O)c3cc(S(=O)(=O)O)cc(S(=O)(=O)O)c23)cc1NC(=O)c1cccc(NC(=O)Nc2cccc(C(=O)Nc3cc(C(=O)Nc4ccc(S(=O)(=O)O)c5cc(S(=O)(=O)O)cc(S(=O)(=O)O)c45)ccc3C)c2)c1
REMARK SMILES IDX 43 1 41 2 44 3 42 4 40 7 36 8 86 9 37 10 38 11 39 12 34 13
REMARK SMILES IDX 33 14 35 16 32 17 5 18 31 19 4 20 3 21 2 22 1 23 6 24 8 25
REMARK SMILES IDX 7 27 9 28 25 29 30 30 24 31 17 32 19 33 12 34 18 35 10 36
REMARK SMILES IDX 11 37 26 38 27 39 28 40 29 41 20 43 21 44 22 45 23 46 13 48
REMARK SMILES IDX 14 49 15 50 16 51 45 53 85 54 46 55 49 56 47 57 48 58 50 59
REMARK SMILES IDX 51 60 52 61 53 63 54 64 83 65 55 66 82 67 84 68 81 69 56 70
REMARK SMILES IDX 57 71 58 72 59 74 80 75 60 76 67 77 75 78 61 79 62 80 68 81
REMARK SMILES IDX 74 82 69 83 76 84 77 85 78 86 79 87 63 89 64 90 65 91 66 92
REMARK SMILES IDX 70 94 71 95 72 96 73 97
REMARK H PARENT 41 5 44 6 33 15 8 26 29 42 23 47 16 52 52 62 58 73 79 88 66 93
REMARK H PARENT 73 98
REMARK Flexibility Score: inf
ROOT
ATOM      1  O   UNL     1      33.739  -0.087  34.012  1.00  0.00    -0.248 OA
ATOM      2  N   UNL     1      32.937   0.991  35.105  1.00  0.00    -0.308 N 
ATOM      3  N   UNL     1      34.614   1.221  34.735  1.00  0.00    -0.308 N 
ATOM      4  C   UNL     1      33.764   0.708  34.617  1.00  0.00     0.323 C 
ATOM      5  H   UNL     1      32.953   1.484  35.481  1.00  0.00     0.171 HD
ATOM      6  H   UNL     1      34.630   1.714  35.111  1.00  0.00     0.171 HD
ENDROOT
BRANCH   2   7
ATOM      7  C   UNL     1      32.087   0.479  34.987  1.00  0.00     0.043 A 
ATOM      8  C   UNL     1      31.237  -1.030  34.949  1.00  0.00     0.042 A 
ATOM      9  C   UNL     1      32.088  -0.518  35.067  1.00  0.00     0.040 A 
ATOM     10  C   UNL     1      30.385  -0.545  34.751  1.00  0.00     0.014 A 
ATOM     11  C   UNL     1      30.385   0.451  34.671  1.00  0.00     0.003 A 
ATOM     12  C   UNL     1      31.236   0.964  34.789  1.00  0.00     0.026 A 
BRANCH   8  13
ATOM     13  C   UNL     1      31.238  -2.026  35.030  1.00  0.00     0.255 C 
ATOM     14  N   UNL     1      31.545  -2.459  35.877  1.00  0.00    -0.322 N 
ATOM     15  H   UNL     1      31.734  -2.110  36.354  1.00  0.00     0.170 HD
ATOM     16  O   UNL     1      30.933  -2.590  34.262  1.00  0.00    -0.269 OA
BRANCH  14  17
ATOM     17  C   UNL     1      31.546  -3.456  35.957  1.00  0.00     0.045 A 
ATOM     18  C   UNL     1      32.029  -5.008  35.360  1.00  0.00     0.042 A 
ATOM     19  C   UNL     1      32.028  -4.012  35.280  1.00  0.00     0.040 A 
ATOM     20  C   UNL     1      31.548  -5.450  36.117  1.00  0.00     0.014 A 
ATOM     21  C   UNL     1      31.066  -4.894  36.795  1.00  0.00     0.006 A 
ATOM     22  C   UNL     1      31.064  -3.897  36.715  1.00  0.00    -0.027 A 
ATOM     23  C   UNL     1      30.583  -3.342  37.392  1.00  0.00     0.046 C 
BRANCH  18  24
ATOM     24  C   UNL     1      32.511  -5.564  34.682  1.00  0.00     0.255 C 
ATOM     25  N   UNL     1      33.478  -5.393  34.492  1.00  0.00    -0.321 N 
ATOM     26  H   UNL     1      33.778  -4.943  34.794  1.00  0.00     0.170 HD
ATOM     27  O   UNL     1      32.027  -6.290  34.195  1.00  0.00    -0.269 OA
BRANCH  25  28
ATOM     28  C   UNL     1      33.960  -5.948  33.815  1.00  0.00     0.050 A 
ATOM     29  C   UNL     1      34.954  -7.310  34.322  1.00  0.00     0.105 A 
ATOM     30  C   UNL     1      34.588  -6.746  33.581  1.00  0.00     0.028 A 
ATOM     31  C   UNL     1      35.559  -8.079  34.112  1.00  0.00     0.046 A 
ATOM     32  C   UNL     1      34.827  -6.951  32.632  1.00  0.00     0.008 A 
ATOM     33  C   UNL     1      35.797  -8.284  33.163  1.00  0.00     0.096 A 
ATOM     34  C   UNL     1      34.453  -6.372  31.851  1.00  0.00     0.102 A 
ATOM     35  C   UNL     1      35.431  -7.719  32.423  1.00  0.00     0.033 A 
ATOM     36  C   UNL     1      33.575  -5.356  33.049  1.00  0.00     0.028 A 
ATOM     37  C   UNL     1      33.823  -5.569  32.061  1.00  0.00     0.025 A 
BRANCH  29  38
ATOM     38  S   UNL     1      35.028  -7.517  35.298  1.00  0.00     0.295 S 
ATOM     39  O   UNL     1      35.787  -6.870  35.377  1.00  0.00    -0.194 OA
ATOM     40  O   UNL     1      34.269  -8.164  35.217  1.00  0.00    -0.194 OA
BRANCH  38  41
ATOM     41  O   UNL     1      35.101  -7.725  36.273  1.00  0.00    -0.282 OA
ATOM     42  H   UNL     1      35.652  -7.694  36.556  1.00  0.00     0.234 HD
ENDBRANCH  38  41
ENDBRANCH  29  38
BRANCH  33  43
ATOM     43  S   UNL     1      36.401  -9.052  32.954  1.00  0.00     0.294 S 
ATOM     44  O   UNL     1      35.605  -9.644  32.825  1.00  0.00    -0.194 OA
ATOM     45  O   UNL     1      37.197  -8.461  33.084  1.00  0.00    -0.194 OA
BRANCH  43  46
ATOM     46  O   UNL     1      37.006  -9.821  32.746  1.00  0.00    -0.282 OA
ATOM     47  H   UNL     1      37.483  -9.744  32.358  1.00  0.00     0.234 HD
ENDBRANCH  43  46
ENDBRANCH  33  43
BRANCH  34  48
ATOM     48  S   UNL     1      34.698  -6.586  30.905  1.00  0.00     0.295 S 
ATOM     49  O   UNL     1      35.517  -6.017  30.988  1.00  0.00    -0.194 OA
ATOM     50  O   UNL     1      33.880  -7.155  30.821  1.00  0.00    -0.194 OA
BRANCH  48  51
ATOM     51  O   UNL     1      34.944  -6.799  29.959  1.00  0.00    -0.282 OA
ATOM     52  H   UNL     1      34.746  -6.437  29.498  1.00  0.00     0.234 HD
ENDBRANCH  48  51
ENDBRANCH  34  48
ENDBRANCH  25  28
ENDBRANCH  18  24
ENDBRANCH  14  17
ENDBRANCH   8  13
ENDBRANCH   2   7
BRANCH   3  53
ATOM     53  C   UNL     1      35.440   0.938  34.248  1.00  0.00     0.043 A 
ATOM     54  C   UNL     1      35.836   0.035  34.416  1.00  0.00     0.040 A 
ATOM     55  C   UNL     1      35.870   1.558  33.591  1.00  0.00     0.026 A 
ATOM     56  C   UNL     1      36.662  -0.247  33.927  1.00  0.00     0.042 A 
ATOM     57  C   UNL     1      36.696   1.276  33.103  1.00  0.00     0.003 A 
ATOM     58  C   UNL     1      37.092   0.373  33.271  1.00  0.00     0.014 A 
BRANCH  56  59
ATOM     59  C   UNL     1      37.058  -1.150  34.095  1.00  0.00     0.255 C 
ATOM     60  O   UNL     1      37.936  -1.230  34.568  1.00  0.00    -0.269 OA
ATOM     61  N   UNL     1      36.577  -1.972  33.791  1.00  0.00    -0.322 N 
ATOM     62  H   UNL     1      36.032  -1.922  33.498  1.00  0.00     0.170 HD
BRANCH  61  63
ATOM     63  C   UNL     1      36.973  -2.874  33.960  1.00  0.00     0.045 A 
ATOM     64  C   UNL     1      37.302  -3.114  34.873  1.00  0.00     0.040 A 
ATOM     65  C   UNL     1      37.039  -3.538  33.214  1.00  0.00    -0.027 A 
ATOM     66  C   UNL     1      37.698  -4.017  35.041  1.00  0.00     0.042 A 
ATOM     67  C   UNL     1      37.435  -4.441  33.382  1.00  0.00     0.006 A 
ATOM     68  C   UNL     1      36.710  -3.298  32.301  1.00  0.00     0.046 C 
ATOM     69  C   UNL     1      37.765  -4.680  34.296  1.00  0.00     0.014 A 
BRANCH  66  70
ATOM     70  C   UNL     1      38.027  -4.256  35.955  1.00  0.00     0.255 C 
ATOM     71  O   UNL     1      38.999  -4.165  36.176  1.00  0.00    -0.269 OA
ATOM     72  N   UNL     1      37.385  -4.586  36.647  1.00  0.00    -0.321 N 
ATOM     73  H   UNL     1      36.919  -4.532  36.240  1.00  0.00     0.170 HD
BRANCH  72  74
ATOM     74  C   UNL     1      37.714  -4.825  37.560  1.00  0.00     0.050 A 
ATOM     75  C   UNL     1      37.073  -4.767  38.379  1.00  0.00     0.028 A 
ATOM     76  C   UNL     1      38.699  -5.134  37.699  1.00  0.00     0.028 A 
ATOM     77  C   UNL     1      37.391  -5.004  39.297  1.00  0.00     0.008 A 
ATOM     78  C   UNL     1      36.129  -4.470  38.239  1.00  0.00     0.105 A 
ATOM     79  C   UNL     1      39.030  -5.380  38.655  1.00  0.00     0.025 A 
ATOM     80  C   UNL     1      38.372  -5.315  39.460  1.00  0.00     0.102 A 
ATOM     81  C   UNL     1      36.765  -4.944  40.075  1.00  0.00     0.033 A 
ATOM     82  C   UNL     1      35.503  -4.410  39.016  1.00  0.00     0.046 A 
ATOM     83  C   UNL     1      35.821  -4.647  39.934  1.00  0.00     0.096 A 
BRANCH  78  84
ATOM     84  S   UNL     1      35.400  -4.161  37.628  1.00  0.00     0.295 S 
ATOM     85  O   UNL     1      34.671  -3.853  37.017  1.00  0.00    -0.194 OA
ATOM     86  O   UNL     1      35.668  -3.211  37.787  1.00  0.00    -0.194 OA
BRANCH  84  87
ATOM     87  O   UNL     1      35.131  -5.111  37.468  1.00  0.00    -0.282 OA
ATOM     88  H   UNL     1      35.145  -5.520  37.934  1.00  0.00     0.234 HD
ENDBRANCH  84  87
ENDBRANCH  78  84
BRANCH  80  89
ATOM     89  S   UNL     1      38.681  -5.550  40.381  1.00  0.00     0.295 S 
ATOM     90  O   UNL     1      38.985  -4.607  40.521  1.00  0.00    -0.194 OA
ATOM     91  O   UNL     1      38.376  -6.492  40.242  1.00  0.00    -0.194 OA
BRANCH  89  92
ATOM     92  O   UNL     1      38.989  -5.786  41.303  1.00  0.00    -0.282 OA
ATOM     93  H   UNL     1      39.595  -5.807  41.431  1.00  0.00     0.234 HD
ENDBRANCH  89  92
ENDBRANCH  80  89
BRANCH  83  94
ATOM     94  S   UNL     1      35.195  -4.586  40.711  1.00  0.00     0.294 S 
ATOM     95  O   UNL     1      35.566  -3.687  40.941  1.00  0.00    -0.194 OA
ATOM     96  O   UNL     1      34.823  -5.486  40.482  1.00  0.00    -0.194 OA
BRANCH  94  97
ATOM     97  O   UNL     1      34.569  -4.526  41.489  1.00  0.00    -0.282 OA
ATOM     98  H   UNL     1      34.312  -5.041  41.720  1.00  0.00     0.234 HD
ENDBRANCH  94  97
ENDBRANCH  83  94
ENDBRANCH  72  74
ENDBRANCH  66  70
ENDBRANCH  61  63
ENDBRANCH  56  59
ENDBRANCH   3  53
TORSDOF 22
ENDMDL
MODEL 9
REMARK VINA RESULT:   -11.069      3.009      7.706
REMARK INTER + INTRA:          21.067
REMARK INTER:                 -22.714
REMARK INTRA:                  43.781
REMARK UNBOUND:                44.430
REMARK SMILES Cc1ccc(C(=O)Nc2ccc(S(=O)(=O)O)c3cc(S(=O)(=O)O)cc(S(=O)(=O)O)c23)cc1NC(=O)c1cccc(NC(=O)Nc2cccc(C(=O)Nc3cc(C(=O)Nc4ccc(S(=O)(=O)O)c5cc(S(=O)(=O)O)cc(S(=O)(=O)O)c45)ccc3C)c2)c1
REMARK SMILES IDX 43 1 41 2 44 3 42 4 40 7 36 8 86 9 37 10 38 11 39 12 34 13
REMARK SMILES IDX 33 14 35 16 32 17 5 18 31 19 4 20 3 21 2 22 1 23 6 24 8 25
REMARK SMILES IDX 7 27 9 28 25 29 30 30 24 31 17 32 19 33 12 34 18 35 10 36
REMARK SMILES IDX 11 37 26 38 27 39 28 40 29 41 20 43 21 44 22 45 23 46 13 48
REMARK SMILES IDX 14 49 15 50 16 51 45 53 85 54 46 55 49 56 47 57 48 58 50 59
REMARK SMILES IDX 51 60 52 61 53 63 54 64 83 65 55 66 82 67 84 68 81 69 56 70
REMARK SMILES IDX 57 71 58 72 59 74 80 75 60 76 67 77 75 78 61 79 62 80 68 81
REMARK SMILES IDX 74 82 69 83 76 84 77 85 78 86 79 87 63 89 64 90 65 91 66 92
REMARK SMILES IDX 70 94 71 95 72 96 73 97
REMARK H PARENT 41 5 44 6 33 15 8 26 29 42 23 47 16 52 52 62 58 73 79 88 66 93
REMARK H PARENT 73 98
REMARK Flexibility Score: inf
ROOT
ATOM      1  O   UNL     1      28.910  -0.676  34.459  1.00  0.00    -0.248 OA
ATOM      2  N   UNL     1      28.096  -2.204  34.467  1.00  0.00    -0.308 N 
ATOM      3  N   UNL     1      27.637  -0.984  33.326  1.00  0.00    -0.308 N 
ATOM      4  C   UNL     1      28.214  -1.288  34.084  1.00  0.00     0.323 C 
ATOM      5  H   UNL     1      27.664  -2.584  34.234  1.00  0.00     0.171 HD
ATOM      6  H   UNL     1      27.205  -1.363  33.093  1.00  0.00     0.171 HD
ENDROOT
BRANCH   2   7
ATOM      7  C   UNL     1      28.673  -2.508  35.224  1.00  0.00     0.043 A 
ATOM      8  C   UNL     1      30.198  -3.082  35.813  1.00  0.00     0.042 A 
ATOM      9  C   UNL     1      29.621  -2.777  35.055  1.00  0.00     0.040 A 
ATOM     10  C   UNL     1      29.827  -3.117  36.741  1.00  0.00     0.014 A 
ATOM     11  C   UNL     1      28.879  -2.848  36.910  1.00  0.00     0.003 A 
ATOM     12  C   UNL     1      28.302  -2.543  36.152  1.00  0.00     0.026 A 
BRANCH   8  13
ATOM     13  C   UNL     1      31.145  -3.350  35.643  1.00  0.00     0.255 C 
ATOM     14  N   UNL     1      31.781  -2.704  35.221  1.00  0.00    -0.322 N 
ATOM     15  H   UNL     1      31.588  -2.136  35.066  1.00  0.00     0.170 HD
ATOM     16  O   UNL     1      31.457  -4.267  35.894  1.00  0.00    -0.269 OA
BRANCH  14  17
ATOM     17  C   UNL     1      32.729  -2.974  35.051  1.00  0.00     0.045 A 
ATOM     18  C   UNL     1      34.213  -3.673  35.607  1.00  0.00     0.042 A 
ATOM     19  C   UNL     1      33.265  -3.403  35.778  1.00  0.00     0.040 A 
ATOM     20  C   UNL     1      34.624  -3.513  34.710  1.00  0.00     0.014 A 
ATOM     21  C   UNL     1      34.088  -3.084  33.983  1.00  0.00     0.006 A 
ATOM     22  C   UNL     1      33.140  -2.814  34.153  1.00  0.00    -0.027 A 
ATOM     23  C   UNL     1      32.604  -2.385  33.427  1.00  0.00     0.046 C 
BRANCH  18  24
ATOM     24  C   UNL     1      34.749  -4.102  36.335  1.00  0.00     0.255 C 
ATOM     25  N   UNL     1      35.197  -3.535  37.026  1.00  0.00    -0.321 N 
ATOM     26  H   UNL     1      35.142  -2.918  37.004  1.00  0.00     0.170 HD
ATOM     27  O   UNL     1      34.837  -5.097  36.370  1.00  0.00    -0.269 OA
BRANCH  25  28
ATOM     28  C   UNL     1      35.733  -3.964  37.753  1.00  0.00     0.050 A 
ATOM     29  C   UNL     1      37.480  -4.116  37.602  1.00  0.00     0.105 A 
ATOM     30  C   UNL     1      36.650  -4.274  38.138  1.00  0.00     0.028 A 
ATOM     31  C   UNL     1      38.368  -4.408  37.959  1.00  0.00     0.046 A 
ATOM     32  C   UNL     1      36.708  -4.722  39.030  1.00  0.00     0.008 A 
ATOM     33  C   UNL     1      38.425  -4.857  38.851  1.00  0.00     0.096 A 
ATOM     34  C   UNL     1      35.852  -4.893  39.598  1.00  0.00     0.102 A 
ATOM     35  C   UNL     1      37.595  -5.014  39.386  1.00  0.00     0.033 A 
ATOM     36  C   UNL     1      34.864  -4.125  38.305  1.00  0.00     0.028 A 
ATOM     37  C   UNL     1      34.924  -4.592  39.233  1.00  0.00     0.025 A 
BRANCH  29  38
ATOM     38  S   UNL     1      37.926  -3.766  36.778  1.00  0.00     0.295 S 
ATOM     39  O   UNL     1      37.855  -4.671  36.357  1.00  0.00    -0.194 OA
ATOM     40  O   UNL     1      37.996  -2.862  37.200  1.00  0.00    -0.194 OA
BRANCH  38  41
ATOM     41  O   UNL     1      38.372  -3.417  35.954  1.00  0.00    -0.282 OA
ATOM     42  H   UNL     1      38.231  -3.656  35.400  1.00  0.00     0.234 HD
ENDBRANCH  38  41
ENDBRANCH  29  38
BRANCH  33  43
ATOM     43  S   UNL     1      39.313  -5.148  39.207  1.00  0.00     0.294 S 
ATOM     44  O   UNL     1      39.372  -4.309  39.748  1.00  0.00    -0.194 OA
ATOM     45  O   UNL     1      39.254  -5.986  38.665  1.00  0.00    -0.194 OA
BRANCH  43  46
ATOM     46  O   UNL     1      40.201  -5.440  39.562  1.00  0.00    -0.282 OA
ATOM     47  H   UNL     1      40.628  -5.018  39.715  1.00  0.00     0.234 HD
ENDBRANCH  43  46
ENDBRANCH  33  43
BRANCH  34  48
ATOM     48  S   UNL     1      35.922  -5.342  40.489  1.00  0.00     0.295 S 
ATOM     49  O   UNL     1      35.816  -6.233  40.047  1.00  0.00    -0.194 OA
ATOM     50  O   UNL     1      36.027  -4.452  40.931  1.00  0.00    -0.194 OA
BRANCH  48  51
ATOM     51  O   UNL     1      35.991  -5.793  41.379  1.00  0.00    -0.282 OA
ATOM     52  H   UNL     1      35.575  -5.671  41.822  1.00  0.00     0.234 HD
ENDBRANCH  48  51
ENDBRANCH  34  48
ENDBRANCH  25  28
ENDBRANCH  18  24
ENDBRANCH  14  17
ENDBRANCH   8  13
ENDBRANCH   2   7
BRANCH   3  53
ATOM     53  C   UNL     1      27.756  -0.067  32.943  1.00  0.00     0.043 A 
ATOM     54  C   UNL     1      28.674   0.306  32.817  1.00  0.00     0.040 A 
ATOM     55  C   UNL     1      26.955   0.475  32.688  1.00  0.00     0.026 A 
ATOM     56  C   UNL     1      28.793   1.223  32.434  1.00  0.00     0.042 A 
ATOM     57  C   UNL     1      27.073   1.392  32.305  1.00  0.00     0.003 A 
ATOM     58  C   UNL     1      27.992   1.766  32.179  1.00  0.00     0.014 A 
BRANCH  56  59
ATOM     59  C   UNL     1      29.711   1.597  32.307  1.00  0.00     0.255 C 
ATOM     60  O   UNL     1      30.447   1.011  31.968  1.00  0.00    -0.269 OA
ATOM     61  N   UNL     1      29.895   2.557  32.519  1.00  0.00    -0.322 N 
ATOM     62  H   UNL     1      29.438   2.921  32.730  1.00  0.00     0.170 HD
BRANCH  61  63
ATOM     63  C   UNL     1      30.813   2.931  32.393  1.00  0.00     0.045 A 
ATOM     64  C   UNL     1      31.601   2.474  32.806  1.00  0.00     0.040 A 
ATOM     65  C   UNL     1      30.944   3.762  31.852  1.00  0.00    -0.027 A 
ATOM     66  C   UNL     1      32.520   2.848  32.679  1.00  0.00     0.042 A 
ATOM     67  C   UNL     1      31.863   4.136  31.725  1.00  0.00     0.006 A 
ATOM     68  C   UNL     1      30.157   4.219  31.439  1.00  0.00     0.046 C 
ATOM     69  C   UNL     1      32.650   3.679  32.139  1.00  0.00     0.014 A 
BRANCH  66  70
ATOM     70  C   UNL     1      33.307   2.391  33.093  1.00  0.00     0.255 C 
ATOM     71  O   UNL     1      34.220   2.518  32.705  1.00  0.00    -0.269 OA
ATOM     72  N   UNL     1      33.181   1.806  33.894  1.00  0.00    -0.321 N 
ATOM     73  H   UNL     1      32.571   1.924  33.885  1.00  0.00     0.170 HD
BRANCH  72  74
ATOM     74  C   UNL     1      33.967   1.348  34.308  1.00  0.00     0.050 A 
ATOM     75  C   UNL     1      33.887   0.920  35.254  1.00  0.00     0.028 A 
ATOM     76  C   UNL     1      34.873   1.296  33.796  1.00  0.00     0.028 A 
ATOM     77  C   UNL     1      34.667   0.460  35.678  1.00  0.00     0.008 A 
ATOM     78  C   UNL     1      33.014   0.974  35.740  1.00  0.00     0.105 A 
ATOM     79  C   UNL     1      35.686   0.817  34.237  1.00  0.00     0.025 A 
ATOM     80  C   UNL     1      35.582   0.396  35.184  1.00  0.00     0.102 A 
ATOM     81  C   UNL     1      34.575   0.054  36.587  1.00  0.00     0.033 A 
ATOM     82  C   UNL     1      32.922   0.567  36.649  1.00  0.00     0.046 A 
ATOM     83  C   UNL     1      33.703   0.107  37.072  1.00  0.00     0.096 A 
BRANCH  78  84
ATOM     84  S   UNL     1      32.060   1.270  35.776  1.00  0.00     0.295 S 
ATOM     85  O   UNL     1      31.106   1.567  35.812  1.00  0.00    -0.194 OA
ATOM     86  O   UNL     1      32.346   2.144  36.170  1.00  0.00    -0.194 OA
BRANCH  84  87
ATOM     87  O   UNL     1      31.774   0.397  35.382  1.00  0.00    -0.282 OA
ATOM     88  H   UNL     1      31.587  -0.064  35.753  1.00  0.00     0.234 HD
ENDBRANCH  84  87
ENDBRANCH  78  84
BRANCH  80  89
ATOM     89  S   UNL     1      36.357  -0.066  35.616  1.00  0.00     0.295 S 
ATOM     90  O   UNL     1      36.087  -0.926  35.183  1.00  0.00    -0.194 OA
ATOM     91  O   UNL     1      36.627   0.794  36.050  1.00  0.00    -0.194 OA
BRANCH  89  92
ATOM     92  O   UNL     1      37.132  -0.528  36.049  1.00  0.00    -0.282 OA
ATOM     93  H   UNL     1      37.682  -0.541  35.763  1.00  0.00     0.234 HD
ENDBRANCH  89  92
ENDBRANCH  80  89
BRANCH  83  94
ATOM     94  S   UNL     1      33.611  -0.299  37.981  1.00  0.00     0.294 S 
ATOM     95  O   UNL     1      33.133  -1.082  37.583  1.00  0.00    -0.194 OA
ATOM     96  O   UNL     1      34.089   0.484  38.380  1.00  0.00    -0.194 OA
BRANCH  94  97
ATOM     97  O   UNL     1      33.519  -0.706  38.890  1.00  0.00    -0.282 OA
ATOM     98  H   UNL     1      33.782  -0.432  39.381  1.00  0.00     0.234 HD
ENDBRANCH  94  97
ENDBRANCH  83  94
ENDBRANCH  72  74
ENDBRANCH  66  70
ENDBRANCH  61  63
ENDBRANCH  56  59
ENDBRANCH   3  53
TORSDOF 22
ENDMDL
