MODEL 1
REMARK VINA RESULT:   -14.975      0.000      0.000
REMARK INTER + INTRA:          18.359
REMARK INTER:                 -31.607
REMARK INTRA:                  49.966
REMARK UNBOUND:                49.966
REMARK SMILES Cc1ccc(C(=O)Nc2ccc(S(=O)(=O)O)c3cc(S(=O)(=O)O)cc(S(=O)(=O)O)c23)cc1NC(=O)c1cccc(NC(=O)Nc2cccc(C(=O)Nc3cc(C(=O)Nc4ccc(S(=O)(=O)O)c5cc(S(=O)(=O)O)cc(S(=O)(=O)O)c45)ccc3C)c2)c1
REMARK SMILES IDX 43 1 41 2 44 3 42 4 40 7 36 8 86 9 37 10 38 11 39 12 34 13
REMARK SMILES IDX 33 14 35 16 32 17 5 18 31 19 4 20 3 21 2 22 1 23 6 24 8 25
REMARK SMILES IDX 7 27 9 28 25 29 30 30 24 31 17 32 19 33 12 34 18 35 10 36
REMARK SMILES IDX 11 37 26 38 27 39 28 40 29 41 20 43 21 44 22 45 23 46 13 48
REMARK SMILES IDX 14 49 15 50 16 51 45 53 85 54 46 55 49 56 47 57 48 58 50 59
REMARK SMILES IDX 51 60 52 61 53 63 54 64 83 65 55 66 82 67 84 68 81 69 56 70
REMARK SMILES IDX 57 71 58 72 59 74 80 75 60 76 67 77 75 78 61 79 62 80 68 81
REMARK SMILES IDX 74 82 69 83 76 84 77 85 78 86 79 87 63 89 64 90 65 91 66 92
REMARK SMILES IDX 70 94 71 95 72 96 73 97
REMARK H PARENT 41 5 44 6 33 15 8 26 29 42 23 47 16 52 52 62 58 73 79 88 66 93
REMARK H PARENT 73 98
REMARK Flexibility Score: inf
ROOT
ATOM      1  O   UNL     1      25.156  37.910  56.080  1.00  0.00    -0.248 OA
ATOM      2  N   UNL     1      24.195  37.904  54.639  1.00  0.00    -0.308 N 
ATOM      3  N   UNL     1      23.889  36.744  55.889  1.00  0.00    -0.308 N 
ATOM      4  C   UNL     1      24.413  37.519  55.536  1.00  0.00     0.323 C 
ATOM      5  H   UNL     1      23.734  37.661  54.302  1.00  0.00     0.171 HD
ATOM      6  H   UNL     1      23.429  36.502  55.553  1.00  0.00     0.171 HD
ENDROOT
BRANCH   2   7
ATOM      7  C   UNL     1      24.718  38.678  54.286  1.00  0.00     0.043 A 
ATOM      8  C   UNL     1      25.403  40.254  54.509  1.00  0.00     0.042 A 
ATOM      9  C   UNL     1      24.879  39.479  54.863  1.00  0.00     0.040 A 
ATOM     10  C   UNL     1      25.766  40.228  53.578  1.00  0.00     0.014 A 
ATOM     11  C   UNL     1      25.605  39.428  53.001  1.00  0.00     0.003 A 
ATOM     12  C   UNL     1      25.081  38.653  53.355  1.00  0.00     0.026 A 
BRANCH   8  13
ATOM     13  C   UNL     1      25.564  41.053  55.087  1.00  0.00     0.255 C 
ATOM     14  N   UNL     1      25.472  41.973  54.705  1.00  0.00    -0.322 N 
ATOM     15  H   UNL     1      25.315  42.048  54.110  1.00  0.00     0.170 HD
ATOM     16  O   UNL     1      25.817  40.933  56.047  1.00  0.00    -0.269 OA
BRANCH  14  17
ATOM     17  C   UNL     1      25.633  42.772  55.284  1.00  0.00     0.045 A 
ATOM     18  C   UNL     1      26.623  43.629  56.417  1.00  0.00     0.042 A 
ATOM     19  C   UNL     1      26.462  42.830  55.839  1.00  0.00     0.040 A 
ATOM     20  C   UNL     1      25.954  44.372  56.441  1.00  0.00     0.014 A 
ATOM     21  C   UNL     1      25.124  44.315  55.886  1.00  0.00     0.006 A 
ATOM     22  C   UNL     1      24.963  43.515  55.308  1.00  0.00    -0.027 A 
ATOM     23  C   UNL     1      24.134  43.458  54.753  1.00  0.00     0.046 C 
BRANCH  18  24
ATOM     24  C   UNL     1      27.453  43.686  56.972  1.00  0.00     0.255 C 
ATOM     25  N   UNL     1      27.392  43.642  57.970  1.00  0.00    -0.321 N 
ATOM     26  H   UNL     1      26.840  43.578  58.244  1.00  0.00     0.170 HD
ATOM     27  O   UNL     1      28.344  43.788  56.530  1.00  0.00    -0.269 OA
BRANCH  25  28
ATOM     28  C   UNL     1      28.222  43.699  58.525  1.00  0.00     0.050 A 
ATOM     29  C   UNL     1      29.015  42.235  59.097  1.00  0.00     0.105 A 
ATOM     30  C   UNL     1      28.990  43.234  59.053  1.00  0.00     0.028 A 
ATOM     31  C   UNL     1      29.747  41.775  59.600  1.00  0.00     0.046 A 
ATOM     32  C   UNL     1      29.697  43.773  59.512  1.00  0.00     0.008 A 
ATOM     33  C   UNL     1      30.454  42.314  60.059  1.00  0.00     0.096 A 
ATOM     34  C   UNL     1      29.684  44.813  59.474  1.00  0.00     0.102 A 
ATOM     35  C   UNL     1      30.428  43.312  60.014  1.00  0.00     0.033 A 
ATOM     36  C   UNL     1      28.189  44.739  58.474  1.00  0.00     0.028 A 
ATOM     37  C   UNL     1      28.925  45.299  58.952  1.00  0.00     0.025 A 
BRANCH  29  38
ATOM     38  S   UNL     1      28.621  41.347  58.857  1.00  0.00     0.295 S 
ATOM     39  O   UNL     1      28.007  41.408  59.645  1.00  0.00    -0.194 OA
ATOM     40  O   UNL     1      29.235  41.287  58.070  1.00  0.00    -0.194 OA
BRANCH  38  41
ATOM     41  O   UNL     1      28.228  40.459  58.618  1.00  0.00    -0.282 OA
ATOM     42  H   UNL     1      27.618  40.363  58.681  1.00  0.00     0.234 HD
ENDBRANCH  38  41
ENDBRANCH  29  38
BRANCH  33  43
ATOM     43  S   UNL     1      31.184  41.853  60.562  1.00  0.00     0.294 S 
ATOM     44  O   UNL     1      31.757  41.864  59.742  1.00  0.00    -0.194 OA
ATOM     45  O   UNL     1      30.612  41.842  61.382  1.00  0.00    -0.194 OA
BRANCH  43  46
ATOM     46  O   UNL     1      31.915  41.393  61.065  1.00  0.00    -0.282 OA
ATOM     47  H   UNL     1      32.460  41.675  61.149  1.00  0.00     0.234 HD
ENDBRANCH  43  46
ENDBRANCH  33  43
BRANCH  34  48
ATOM     48  S   UNL     1      30.396  45.342  59.937  1.00  0.00     0.295 S 
ATOM     49  O   UNL     1      30.973  45.277  59.122  1.00  0.00    -0.194 OA
ATOM     50  O   UNL     1      29.819  45.406  60.751  1.00  0.00    -0.194 OA
BRANCH  48  51
ATOM     51  O   UNL     1      31.108  45.870  60.398  1.00  0.00    -0.282 OA
ATOM     52  H   UNL     1      31.255  46.437  60.195  1.00  0.00     0.234 HD
ENDBRANCH  48  51
ENDBRANCH  34  48
ENDBRANCH  25  28
ENDBRANCH  18  24
ENDBRANCH  14  17
ENDBRANCH   8  13
ENDBRANCH   2   7
BRANCH   3  53
ATOM     53  C   UNL     1      24.108  36.360  56.786  1.00  0.00     0.043 A 
ATOM     54  C   UNL     1      24.824  35.667  56.873  1.00  0.00     0.040 A 
ATOM     55  C   UNL     1      23.611  36.669  57.597  1.00  0.00     0.026 A 
ATOM     56  C   UNL     1      25.043  35.284  57.770  1.00  0.00     0.042 A 
ATOM     57  C   UNL     1      23.829  36.286  58.495  1.00  0.00     0.003 A 
ATOM     58  C   UNL     1      24.545  35.593  58.581  1.00  0.00     0.014 A 
BRANCH  56  59
ATOM     59  C   UNL     1      25.759  34.592  57.857  1.00  0.00     0.255 C 
ATOM     60  O   UNL     1      26.721  34.863  57.846  1.00  0.00    -0.269 OA
ATOM     61  N   UNL     1      25.513  33.627  57.955  1.00  0.00    -0.322 N 
ATOM     62  H   UNL     1      24.916  33.458  57.962  1.00  0.00     0.170 HD
BRANCH  61  63
ATOM     63  C   UNL     1      26.229  32.935  58.041  1.00  0.00     0.045 A 
ATOM     64  C   UNL     1      27.069  33.013  57.504  1.00  0.00     0.040 A 
ATOM     65  C   UNL     1      26.106  32.163  58.666  1.00  0.00    -0.027 A 
ATOM     66  C   UNL     1      27.785  32.320  57.591  1.00  0.00     0.042 A 
ATOM     67  C   UNL     1      26.822  31.470  58.752  1.00  0.00     0.006 A 
ATOM     68  C   UNL     1      25.266  32.085  59.203  1.00  0.00     0.046 C 
ATOM     69  C   UNL     1      27.661  31.549  58.215  1.00  0.00     0.014 A 
BRANCH  66  70
ATOM     70  C   UNL     1      28.624  32.399  57.053  1.00  0.00     0.255 C 
ATOM     71  O   UNL     1      29.510  32.205  57.476  1.00  0.00    -0.269 OA
ATOM     72  N   UNL     1      28.578  32.672  56.092  1.00  0.00    -0.321 N 
ATOM     73  H   UNL     1      27.960  32.714  56.133  1.00  0.00     0.170 HD
BRANCH  72  74
ATOM     74  C   UNL     1      29.417  32.752  55.553  1.00  0.00     0.050 A 
ATOM     75  C   UNL     1      29.371  32.783  54.513  1.00  0.00     0.028 A 
ATOM     76  C   UNL     1      30.342  32.803  56.029  1.00  0.00     0.028 A 
ATOM     77  C   UNL     1      30.204  32.863  53.966  1.00  0.00     0.008 A 
ATOM     78  C   UNL     1      28.480  32.733  54.063  1.00  0.00     0.105 A 
ATOM     79  C   UNL     1      31.209  32.886  55.459  1.00  0.00     0.025 A 
ATOM     80  C   UNL     1      31.140  32.916  54.420  1.00  0.00     0.102 A 
ATOM     81  C   UNL     1      30.145  32.892  52.968  1.00  0.00     0.033 A 
ATOM     82  C   UNL     1      28.421  32.763  53.066  1.00  0.00     0.046 A 
ATOM     83  C   UNL     1      29.254  32.842  52.518  1.00  0.00     0.096 A 
BRANCH  78  84
ATOM     84  S   UNL     1      27.484  32.659  54.120  1.00  0.00     0.295 S 
ATOM     85  O   UNL     1      26.488  32.584  54.176  1.00  0.00    -0.194 OA
ATOM     86  O   UNL     1      27.414  33.654  54.192  1.00  0.00    -0.194 OA
BRANCH  84  87
ATOM     87  O   UNL     1      27.554  31.664  54.048  1.00  0.00    -0.282 OA
ATOM     88  H   UNL     1      27.871  31.344  54.474  1.00  0.00     0.234 HD
ENDBRANCH  84  87
ENDBRANCH  78  84
BRANCH  80  89
ATOM     89  S   UNL     1      31.967  32.995  53.863  1.00  0.00     0.295 S 
ATOM     90  O   UNL     1      31.806  33.976  53.761  1.00  0.00    -0.194 OA
ATOM     91  O   UNL     1      32.128  32.013  53.964  1.00  0.00    -0.194 OA
BRANCH  89  92
ATOM     92  O   UNL     1      32.794  33.073  53.306  1.00  0.00    -0.282 OA
ATOM     93  H   UNL     1      33.323  33.271  53.563  1.00  0.00     0.234 HD
ENDBRANCH  89  92
ENDBRANCH  80  89
BRANCH  83  94
ATOM     94  S   UNL     1      29.195  32.871  51.520  1.00  0.00     0.294 S 
ATOM     95  O   UNL     1      29.142  33.869  51.552  1.00  0.00    -0.194 OA
ATOM     96  O   UNL     1      29.248  31.873  51.488  1.00  0.00    -0.194 OA
BRANCH  94  97
ATOM     97  O   UNL     1      29.136  32.900  50.522  1.00  0.00    -0.282 OA
ATOM     98  H   UNL     1      28.605  33.066  50.248  1.00  0.00     0.234 HD
ENDBRANCH  94  97
ENDBRANCH  83  94
ENDBRANCH  72  74
ENDBRANCH  66  70
ENDBRANCH  61  63
ENDBRANCH  56  59
ENDBRANCH   3  53
TORSDOF 22
ENDMDL
MODEL 2
REMARK VINA RESULT:   -14.382      3.543      7.206
REMARK INTER + INTRA:          19.609
REMARK INTER:                 -28.408
REMARK INTRA:                  48.018
REMARK UNBOUND:                49.966
REMARK SMILES Cc1ccc(C(=O)Nc2ccc(S(=O)(=O)O)c3cc(S(=O)(=O)O)cc(S(=O)(=O)O)c23)cc1NC(=O)c1cccc(NC(=O)Nc2cccc(C(=O)Nc3cc(C(=O)Nc4ccc(S(=O)(=O)O)c5cc(S(=O)(=O)O)cc(S(=O)(=O)O)c45)ccc3C)c2)c1
REMARK SMILES IDX 43 1 41 2 44 3 42 4 40 7 36 8 86 9 37 10 38 11 39 12 34 13
REMARK SMILES IDX 33 14 35 16 32 17 5 18 31 19 4 20 3 21 2 22 1 23 6 24 8 25
REMARK SMILES IDX 7 27 9 28 25 29 30 30 24 31 17 32 19 33 12 34 18 35 10 36
REMARK SMILES IDX 11 37 26 38 27 39 28 40 29 41 20 43 21 44 22 45 23 46 13 48
REMARK SMILES IDX 14 49 15 50 16 51 45 53 85 54 46 55 49 56 47 57 48 58 50 59
REMARK SMILES IDX 51 60 52 61 53 63 54 64 83 65 55 66 82 67 84 68 81 69 56 70
REMARK SMILES IDX 57 71 58 72 59 74 80 75 60 76 67 77 75 78 61 79 62 80 68 81
REMARK SMILES IDX 74 82 69 83 76 84 77 85 78 86 79 87 63 89 64 90 65 91 66 92
REMARK SMILES IDX 70 94 71 95 72 96 73 97
REMARK H PARENT 41 5 44 6 33 15 8 26 29 42 23 47 16 52 52 62 58 73 79 88 66 93
REMARK H PARENT 73 98
REMARK Flexibility Score: inf
ROOT
ATOM      1  O   UNL     1      32.169  35.135  58.575  1.00  0.00    -0.248 OA
ATOM      2  N   UNL     1      33.242  35.819  59.749  1.00  0.00    -0.308 N 
ATOM      3  N   UNL     1      32.763  34.159  59.877  1.00  0.00    -0.308 N 
ATOM      4  C   UNL     1      32.725  35.038  59.400  1.00  0.00     0.323 C 
ATOM      5  H   UNL     1      33.587  35.759  60.261  1.00  0.00     0.171 HD
ATOM      6  H   UNL     1      33.108  34.099  60.389  1.00  0.00     0.171 HD
ENDROOT
BRANCH   2   7
ATOM      7  C   UNL     1      33.204  36.697  59.273  1.00  0.00     0.043 A 
ATOM      8  C   UNL     1      32.480  38.256  59.054  1.00  0.00     0.042 A 
ATOM      9  C   UNL     1      32.518  37.377  59.531  1.00  0.00     0.040 A 
ATOM     10  C   UNL     1      33.129  38.454  58.319  1.00  0.00     0.014 A 
ATOM     11  C   UNL     1      33.815  37.774  58.061  1.00  0.00     0.003 A 
ATOM     12  C   UNL     1      33.853  36.895  58.538  1.00  0.00     0.026 A 
BRANCH   8  13
ATOM     13  C   UNL     1      31.794  38.935  59.312  1.00  0.00     0.255 C 
ATOM     14  N   UNL     1      32.029  39.907  59.316  1.00  0.00    -0.322 N 
ATOM     15  H   UNL     1      32.600  40.089  59.158  1.00  0.00     0.170 HD
ATOM     16  O   UNL     1      30.873  38.641  59.567  1.00  0.00    -0.269 OA
BRANCH  14  17
ATOM     17  C   UNL     1      31.341  40.585  59.575  1.00  0.00     0.045 A 
ATOM     18  C   UNL     1      29.863  41.425  59.244  1.00  0.00     0.042 A 
ATOM     19  C   UNL     1      30.550  40.746  58.986  1.00  0.00     0.040 A 
ATOM     20  C   UNL     1      29.967  41.943  60.093  1.00  0.00     0.014 A 
ATOM     21  C   UNL     1      30.759  41.783  60.683  1.00  0.00     0.006 A 
ATOM     22  C   UNL     1      31.446  41.104  60.424  1.00  0.00    -0.027 A 
ATOM     23  C   UNL     1      32.238  40.943  61.013  1.00  0.00     0.046 C 
BRANCH  18  24
ATOM     24  C   UNL     1      29.071  41.585  58.654  1.00  0.00     0.255 C 
ATOM     25  N   UNL     1      29.185  42.066  57.785  1.00  0.00    -0.321 N 
ATOM     26  H   UNL     1      29.746  42.264  57.611  1.00  0.00     0.170 HD
ATOM     27  O   UNL     1      28.166  41.266  58.934  1.00  0.00    -0.269 OA
BRANCH  25  28
ATOM     28  C   UNL     1      28.394  42.226  57.195  1.00  0.00     0.050 A 
ATOM     29  C   UNL     1      27.549  43.770  57.237  1.00  0.00     0.105 A 
ATOM     30  C   UNL     1      27.631  42.849  56.855  1.00  0.00     0.028 A 
ATOM     31  C   UNL     1      26.821  44.378  56.920  1.00  0.00     0.046 A 
ATOM     32  C   UNL     1      26.985  42.536  56.158  1.00  0.00     0.008 A 
ATOM     33  C   UNL     1      26.175  44.066  56.222  1.00  0.00     0.096 A 
ATOM     34  C   UNL     1      27.059  41.580  55.752  1.00  0.00     0.102 A 
ATOM     35  C   UNL     1      26.258  43.145  55.842  1.00  0.00     0.033 A 
ATOM     36  C   UNL     1      28.486  41.266  56.803  1.00  0.00     0.028 A 
ATOM     37  C   UNL     1      27.814  40.941  56.077  1.00  0.00     0.025 A 
BRANCH  29  38
ATOM     38  S   UNL     1      27.874  44.482  57.859  1.00  0.00     0.295 S 
ATOM     39  O   UNL     1      28.504  44.809  57.155  1.00  0.00    -0.194 OA
ATOM     40  O   UNL     1      27.243  44.155  58.563  1.00  0.00    -0.194 OA
BRANCH  38  41
ATOM     41  O   UNL     1      28.199  45.194  58.482  1.00  0.00    -0.282 OA
ATOM     42  H   UNL     1      27.792  45.526  58.812  1.00  0.00     0.234 HD
ENDBRANCH  38  41
ENDBRANCH  29  38
BRANCH  33  43
ATOM     43  S   UNL     1      25.449  44.675  55.906  1.00  0.00     0.294 S 
ATOM     44  O   UNL     1      24.836  44.308  56.607  1.00  0.00    -0.194 OA
ATOM     45  O   UNL     1      26.061  45.042  55.206  1.00  0.00    -0.194 OA
BRANCH  43  46
ATOM     46  O   UNL     1      24.722  45.285  55.590  1.00  0.00    -0.282 OA
ATOM     47  H   UNL     1      24.828  45.893  55.537  1.00  0.00     0.234 HD
ENDBRANCH  43  46
ENDBRANCH  33  43
BRANCH  34  48
ATOM     48  S   UNL     1      26.408  41.279  55.055  1.00  0.00     0.295 S 
ATOM     49  O   UNL     1      27.019  41.615  54.339  1.00  0.00    -0.194 OA
ATOM     50  O   UNL     1      25.796  40.942  55.771  1.00  0.00    -0.194 OA
BRANCH  48  51
ATOM     51  O   UNL     1      25.758  40.977  54.358  1.00  0.00    -0.282 OA
ATOM     52  H   UNL     1      25.339  41.374  54.132  1.00  0.00     0.234 HD
ENDBRANCH  48  51
ENDBRANCH  34  48
ENDBRANCH  25  28
ENDBRANCH  18  24
ENDBRANCH  14  17
ENDBRANCH   8  13
ENDBRANCH   2   7
BRANCH   3  53
ATOM     53  C   UNL     1      32.245  33.378  59.528  1.00  0.00     0.043 A 
ATOM     54  C   UNL     1      31.267  33.302  59.718  1.00  0.00     0.040 A 
ATOM     55  C   UNL     1      32.707  32.674  58.989  1.00  0.00     0.026 A 
ATOM     56  C   UNL     1      30.749  32.520  59.368  1.00  0.00     0.042 A 
ATOM     57  C   UNL     1      32.190  31.892  58.639  1.00  0.00     0.003 A 
ATOM     58  C   UNL     1      31.211  31.816  58.829  1.00  0.00     0.014 A 
BRANCH  56  59
ATOM     59  C   UNL     1      29.771  32.443  59.558  1.00  0.00     0.255 C 
ATOM     60  O   UNL     1      29.123  33.054  59.101  1.00  0.00    -0.269 OA
ATOM     61  N   UNL     1      29.438  31.757  60.204  1.00  0.00    -0.322 N 
ATOM     62  H   UNL     1      29.840  31.378  60.488  1.00  0.00     0.170 HD
BRANCH  61  63
ATOM     63  C   UNL     1      28.460  31.680  60.394  1.00  0.00     0.045 A 
ATOM     64  C   UNL     1      27.909  32.504  60.525  1.00  0.00     0.040 A 
ATOM     65  C   UNL     1      28.031  30.778  60.453  1.00  0.00    -0.027 A 
ATOM     66  C   UNL     1      26.931  32.428  60.715  1.00  0.00     0.042 A 
ATOM     67  C   UNL     1      27.052  30.701  60.642  1.00  0.00     0.006 A 
ATOM     68  C   UNL     1      28.582  29.954  60.321  1.00  0.00     0.046 C 
ATOM     69  C   UNL     1      26.502  31.526  60.773  1.00  0.00     0.014 A 
BRANCH  66  70
ATOM     70  C   UNL     1      26.381  33.253  60.846  1.00  0.00     0.255 C 
ATOM     71  O   UNL     1      25.841  33.367  61.681  1.00  0.00    -0.269 OA
ATOM     72  N   UNL     1      26.370  33.963  60.143  1.00  0.00    -0.321 N 
ATOM     73  H   UNL     1      26.761  33.626  59.797  1.00  0.00     0.170 HD
BRANCH  72  74
ATOM     74  C   UNL     1      25.821  34.788  60.273  1.00  0.00     0.050 A 
ATOM     75  C   UNL     1      25.436  35.297  59.450  1.00  0.00     0.028 A 
ATOM     76  C   UNL     1      25.630  35.145  61.233  1.00  0.00     0.028 A 
ATOM     77  C   UNL     1      24.885  36.123  59.569  1.00  0.00     0.008 A 
ATOM     78  C   UNL     1      25.624  34.950  58.531  1.00  0.00     0.105 A 
ATOM     79  C   UNL     1      25.057  36.005  61.357  1.00  0.00     0.025 A 
ATOM     80  C   UNL     1      24.682  36.498  60.520  1.00  0.00     0.102 A 
ATOM     81  C   UNL     1      24.522  36.602  58.770  1.00  0.00     0.033 A 
ATOM     82  C   UNL     1      25.260  35.428  57.732  1.00  0.00     0.046 A 
ATOM     83  C   UNL     1      24.710  36.254  57.851  1.00  0.00     0.096 A 
BRANCH  78  84
ATOM     84  S   UNL     1      26.050  34.272  57.932  1.00  0.00     0.295 S 
ATOM     85  O   UNL     1      26.476  33.594  57.333  1.00  0.00    -0.194 OA
ATOM     86  O   UNL     1      26.884  34.822  57.903  1.00  0.00    -0.194 OA
BRANCH  84  87
ATOM     87  O   UNL     1      25.215  33.722  57.961  1.00  0.00    -0.282 OA
ATOM     88  H   UNL     1      24.805  33.755  57.497  1.00  0.00     0.234 HD
ENDBRANCH  84  87
ENDBRANCH  78  84
BRANCH  80  89
ATOM     89  S   UNL     1      24.130  37.325  60.628  1.00  0.00     0.295 S 
ATOM     90  O   UNL     1      23.299  36.769  60.646  1.00  0.00    -0.194 OA
ATOM     91  O   UNL     1      24.961  37.881  60.610  1.00  0.00    -0.194 OA
BRANCH  89  92
ATOM     92  O   UNL     1      23.579  38.152  60.737  1.00  0.00    -0.282 OA
ATOM     93  H   UNL     1      23.795  38.697  60.533  1.00  0.00     0.234 HD
ENDBRANCH  89  92
ENDBRANCH  80  89
BRANCH  83  94
ATOM     94  S   UNL     1      24.347  36.733  57.052  1.00  0.00     0.294 S 
ATOM     95  O   UNL     1      23.785  35.936  56.830  1.00  0.00    -0.194 OA
ATOM     96  O   UNL     1      24.908  37.530  57.274  1.00  0.00    -0.194 OA
BRANCH  94  97
ATOM     97  O   UNL     1      23.983  37.212  56.252  1.00  0.00    -0.282 OA
ATOM     98  H   UNL     1      23.527  36.957  55.919  1.00  0.00     0.234 HD
ENDBRANCH  94  97
ENDBRANCH  83  94
ENDBRANCH  72  74
ENDBRANCH  66  70
ENDBRANCH  61  63
ENDBRANCH  56  59
ENDBRANCH   3  53
TORSDOF 22
ENDMDL
MODEL 3
REMARK VINA RESULT:   -14.345      1.330      2.274
REMARK INTER + INTRA:          19.687
REMARK INTER:                 -30.482
REMARK INTRA:                  50.170
REMARK UNBOUND:                49.966
REMARK SMILES Cc1ccc(C(=O)Nc2ccc(S(=O)(=O)O)c3cc(S(=O)(=O)O)cc(S(=O)(=O)O)c23)cc1NC(=O)c1cccc(NC(=O)Nc2cccc(C(=O)Nc3cc(C(=O)Nc4ccc(S(=O)(=O)O)c5cc(S(=O)(=O)O)cc(S(=O)(=O)O)c45)ccc3C)c2)c1
REMARK SMILES IDX 43 1 41 2 44 3 42 4 40 7 36 8 86 9 37 10 38 11 39 12 34 13
REMARK SMILES IDX 33 14 35 16 32 17 5 18 31 19 4 20 3 21 2 22 1 23 6 24 8 25
REMARK SMILES IDX 7 27 9 28 25 29 30 30 24 31 17 32 19 33 12 34 18 35 10 36
REMARK SMILES IDX 11 37 26 38 27 39 28 40 29 41 20 43 21 44 22 45 23 46 13 48
REMARK SMILES IDX 14 49 15 50 16 51 45 53 85 54 46 55 49 56 47 57 48 58 50 59
REMARK SMILES IDX 51 60 52 61 53 63 54 64 83 65 55 66 82 67 84 68 81 69 56 70
REMARK SMILES IDX 57 71 58 72 59 74 80 75 60 76 67 77 75 78 61 79 62 80 68 81
REMARK SMILES IDX 74 82 69 83 76 84 77 85 78 86 79 87 63 89 64 90 65 91 66 92
REMARK SMILES IDX 70 94 71 95 72 96 73 97
REMARK H PARENT 41 5 44 6 33 15 8 26 29 42 23 47 16 52 52 62 58 73 79 88 66 93
REMARK H PARENT 73 98
REMARK Flexibility Score: inf
ROOT
ATOM      1  O   UNL     1      25.050  37.564  56.092  1.00  0.00    -0.248 OA
ATOM      2  N   UNL     1      24.036  37.496  54.689  1.00  0.00    -0.308 N 
ATOM      3  N   UNL     1      23.781  36.389  55.997  1.00  0.00    -0.308 N 
ATOM      4  C   UNL     1      24.289  37.150  55.593  1.00  0.00     0.323 C 
ATOM      5  H   UNL     1      23.564  37.239  54.380  1.00  0.00     0.171 HD
ATOM      6  H   UNL     1      23.309  36.132  55.688  1.00  0.00     0.171 HD
ENDROOT
BRANCH   2   7
ATOM      7  C   UNL     1      24.543  38.256  54.285  1.00  0.00     0.043 A 
ATOM      8  C   UNL     1      25.187  39.861  54.399  1.00  0.00     0.042 A 
ATOM      9  C   UNL     1      24.679  39.100  54.804  1.00  0.00     0.040 A 
ATOM     10  C   UNL     1      25.559  39.777  53.474  1.00  0.00     0.014 A 
ATOM     11  C   UNL     1      25.423  38.934  52.955  1.00  0.00     0.003 A 
ATOM     12  C   UNL     1      24.915  38.173  53.361  1.00  0.00     0.026 A 
BRANCH   8  13
ATOM     13  C   UNL     1      25.322  40.704  54.918  1.00  0.00     0.255 C 
ATOM     14  N   UNL     1      25.045  41.582  54.528  1.00  0.00    -0.322 N 
ATOM     15  H   UNL     1      24.789  41.604  53.964  1.00  0.00     0.170 HD
ATOM     16  O   UNL     1      25.735  40.669  55.828  1.00  0.00    -0.269 OA
BRANCH  14  17
ATOM     17  C   UNL     1      25.181  42.425  55.049  1.00  0.00     0.045 A 
ATOM     18  C   UNL     1      26.176  43.423  56.054  1.00  0.00     0.042 A 
ATOM     19  C   UNL     1      26.040  42.580  55.534  1.00  0.00     0.040 A 
ATOM     20  C   UNL     1      25.451  44.111  56.090  1.00  0.00     0.014 A 
ATOM     21  C   UNL     1      24.591  43.956  55.604  1.00  0.00     0.006 A 
ATOM     22  C   UNL     1      24.455  43.113  55.084  1.00  0.00    -0.027 A 
ATOM     23  C   UNL     1      23.595  42.957  54.599  1.00  0.00     0.046 C 
BRANCH  18  24
ATOM     24  C   UNL     1      27.037  43.579  56.540  1.00  0.00     0.255 C 
ATOM     25  N   UNL     1      27.846  43.884  56.037  1.00  0.00    -0.321 N 
ATOM     26  H   UNL     1      27.814  43.977  55.425  1.00  0.00     0.170 HD
ATOM     27  O   UNL     1      27.088  43.429  57.527  1.00  0.00    -0.269 OA
BRANCH  25  28
ATOM     28  C   UNL     1      28.706  44.039  56.522  1.00  0.00     0.050 A 
ATOM     29  C   UNL     1      29.111  45.641  57.131  1.00  0.00     0.105 A 
ATOM     30  C   UNL     1      29.361  44.678  57.021  1.00  0.00     0.028 A 
ATOM     31  C   UNL     1      29.730  46.266  57.607  1.00  0.00     0.046 A 
ATOM     32  C   UNL     1      30.228  44.341  57.387  1.00  0.00     0.008 A 
ATOM     33  C   UNL     1      30.597  45.929  57.974  1.00  0.00     0.096 A 
ATOM     34  C   UNL     1      30.501  43.342  57.280  1.00  0.00     0.102 A 
ATOM     35  C   UNL     1      30.846  44.967  57.863  1.00  0.00     0.033 A 
ATOM     36  C   UNL     1      28.959  43.036  56.404  1.00  0.00     0.028 A 
ATOM     37  C   UNL     1      29.862  42.685  56.785  1.00  0.00     0.025 A 
BRANCH  29  38
ATOM     38  S   UNL     1      28.466  46.391  56.983  1.00  0.00     0.295 S 
ATOM     39  O   UNL     1      28.865  46.554  56.080  1.00  0.00    -0.194 OA
ATOM     40  O   UNL     1      28.068  46.227  57.885  1.00  0.00    -0.194 OA
BRANCH  38  41
ATOM     41  O   UNL     1      27.821  47.141  56.835  1.00  0.00    -0.282 OA
ATOM     42  H   UNL     1      28.000  47.726  56.933  1.00  0.00     0.234 HD
ENDBRANCH  38  41
ENDBRANCH  29  38
BRANCH  33  43
ATOM     43  S   UNL     1      31.214  46.554  58.450  1.00  0.00     0.294 S 
ATOM     44  O   UNL     1      30.816  46.283  59.326  1.00  0.00    -0.194 OA
ATOM     45  O   UNL     1      31.613  46.826  57.574  1.00  0.00    -0.194 OA
BRANCH  43  46
ATOM     46  O   UNL     1      31.832  47.180  58.925  1.00  0.00    -0.282 OA
ATOM     47  H   UNL     1      32.042  47.688  58.638  1.00  0.00     0.234 HD
ENDBRANCH  43  46
ENDBRANCH  33  43
BRANCH  34  48
ATOM     48  S   UNL     1      31.371  43.016  57.650  1.00  0.00     0.295 S 
ATOM     49  O   UNL     1      31.821  43.235  56.784  1.00  0.00    -0.194 OA
ATOM     50  O   UNL     1      30.922  42.797  58.516  1.00  0.00    -0.194 OA
BRANCH  48  51
ATOM     51  O   UNL     1      32.241  42.691  58.020  1.00  0.00    -0.282 OA
ATOM     52  H   UNL     1      32.415  42.102  57.932  1.00  0.00     0.234 HD
ENDBRANCH  48  51
ENDBRANCH  34  48
ENDBRANCH  25  28
ENDBRANCH  18  24
ENDBRANCH  14  17
ENDBRANCH   8  13
ENDBRANCH   2   7
BRANCH   3  53
ATOM     53  C   UNL     1      24.034  36.044  56.901  1.00  0.00     0.043 A 
ATOM     54  C   UNL     1      24.815  35.427  57.000  1.00  0.00     0.040 A 
ATOM     55  C   UNL     1      23.507  36.315  57.706  1.00  0.00     0.026 A 
ATOM     56  C   UNL     1      25.068  35.081  57.904  1.00  0.00     0.042 A 
ATOM     57  C   UNL     1      23.760  35.970  58.610  1.00  0.00     0.003 A 
ATOM     58  C   UNL     1      24.540  35.353  58.709  1.00  0.00     0.014 A 
BRANCH  56  59
ATOM     59  C   UNL     1      25.848  34.464  58.002  1.00  0.00     0.255 C 
ATOM     60  O   UNL     1      26.762  34.836  58.167  1.00  0.00    -0.269 OA
ATOM     61  N   UNL     1      25.716  33.475  57.937  1.00  0.00    -0.322 N 
ATOM     62  H   UNL     1      25.149  33.245  57.834  1.00  0.00     0.170 HD
BRANCH  61  63
ATOM     63  C   UNL     1      26.497  32.858  58.035  1.00  0.00     0.045 A 
ATOM     64  C   UNL     1      27.316  32.995  57.479  1.00  0.00     0.040 A 
ATOM     65  C   UNL     1      26.458  32.104  58.691  1.00  0.00    -0.027 A 
ATOM     66  C   UNL     1      28.097  32.378  57.578  1.00  0.00     0.042 A 
ATOM     67  C   UNL     1      27.239  31.487  58.790  1.00  0.00     0.006 A 
ATOM     68  C   UNL     1      25.638  31.968  59.248  1.00  0.00     0.046 C 
ATOM     69  C   UNL     1      28.058  31.624  58.233  1.00  0.00     0.014 A 
BRANCH  66  70
ATOM     70  C   UNL     1      28.916  32.515  57.021  1.00  0.00     0.255 C 
ATOM     71  O   UNL     1      29.812  32.588  57.459  1.00  0.00    -0.269 OA
ATOM     72  N   UNL     1      28.839  32.579  56.026  1.00  0.00    -0.321 N 
ATOM     73  H   UNL     1      28.224  32.504  56.068  1.00  0.00     0.170 HD
BRANCH  72  74
ATOM     74  C   UNL     1      29.658  32.717  55.468  1.00  0.00     0.050 A 
ATOM     75  C   UNL     1      29.583  32.763  54.430  1.00  0.00     0.028 A 
ATOM     76  C   UNL     1      30.590  32.815  55.922  1.00  0.00     0.028 A 
ATOM     77  C   UNL     1      30.396  32.900  53.864  1.00  0.00     0.008 A 
ATOM     78  C   UNL     1      28.685  32.668  54.002  1.00  0.00     0.105 A 
ATOM     79  C   UNL     1      31.436  32.957  55.332  1.00  0.00     0.025 A 
ATOM     80  C   UNL     1      31.338  33.000  54.295  1.00  0.00     0.102 A 
ATOM     81  C   UNL     1      30.310  32.942  52.868  1.00  0.00     0.033 A 
ATOM     82  C   UNL     1      28.599  32.710  53.007  1.00  0.00     0.046 A 
ATOM     83  C   UNL     1      29.411  32.847  52.440  1.00  0.00     0.096 A 
BRANCH  78  84
ATOM     84  S   UNL     1      27.697  32.534  54.082  1.00  0.00     0.295 S 
ATOM     85  O   UNL     1      26.709  32.400  54.161  1.00  0.00    -0.194 OA
ATOM     86  O   UNL     1      27.569  33.523  54.151  1.00  0.00    -0.194 OA
BRANCH  84  87
ATOM     87  O   UNL     1      27.825  31.545  54.012  1.00  0.00    -0.282 OA
ATOM     88  H   UNL     1      27.779  31.190  54.518  1.00  0.00     0.234 HD
ENDBRANCH  84  87
ENDBRANCH  78  84
BRANCH  80  89
ATOM     89  S   UNL     1      32.145  33.137  53.720  1.00  0.00     0.295 S 
ATOM     90  O   UNL     1      31.893  34.096  53.593  1.00  0.00    -0.194 OA
ATOM     91  O   UNL     1      32.397  32.177  53.846  1.00  0.00    -0.194 OA
BRANCH  89  92
ATOM     92  O   UNL     1      32.951  33.272  53.144  1.00  0.00    -0.282 OA
ATOM     93  H   UNL     1      32.960  33.731  52.726  1.00  0.00     0.234 HD
ENDBRANCH  89  92
ENDBRANCH  80  89
BRANCH  83  94
ATOM     94  S   UNL     1      29.325  32.889  51.444  1.00  0.00     0.294 S 
ATOM     95  O   UNL     1      29.184  33.878  51.498  1.00  0.00    -0.194 OA
ATOM     96  O   UNL     1      29.466  31.901  51.390  1.00  0.00    -0.194 OA
BRANCH  94  97
ATOM     97  O   UNL     1      29.239  32.931  50.449  1.00  0.00    -0.282 OA
ATOM     98  H   UNL     1      29.210  33.481  50.163  1.00  0.00     0.234 HD
ENDBRANCH  94  97
ENDBRANCH  83  94
ENDBRANCH  72  74
ENDBRANCH  66  70
ENDBRANCH  61  63
ENDBRANCH  56  59
ENDBRANCH   3  53
TORSDOF 22
ENDMDL
MODEL 4
REMARK VINA RESULT:   -14.134      3.735     10.368
REMARK INTER + INTRA:          20.134
REMARK INTER:                 -28.804
REMARK INTRA:                  48.938
REMARK UNBOUND:                49.966
REMARK SMILES Cc1ccc(C(=O)Nc2ccc(S(=O)(=O)O)c3cc(S(=O)(=O)O)cc(S(=O)(=O)O)c23)cc1NC(=O)c1cccc(NC(=O)Nc2cccc(C(=O)Nc3cc(C(=O)Nc4ccc(S(=O)(=O)O)c5cc(S(=O)(=O)O)cc(S(=O)(=O)O)c45)ccc3C)c2)c1
REMARK SMILES IDX 43 1 41 2 44 3 42 4 40 7 36 8 86 9 37 10 38 11 39 12 34 13
REMARK SMILES IDX 33 14 35 16 32 17 5 18 31 19 4 20 3 21 2 22 1 23 6 24 8 25
REMARK SMILES IDX 7 27 9 28 25 29 30 30 24 31 17 32 19 33 12 34 18 35 10 36
REMARK SMILES IDX 11 37 26 38 27 39 28 40 29 41 20 43 21 44 22 45 23 46 13 48
REMARK SMILES IDX 14 49 15 50 16 51 45 53 85 54 46 55 49 56 47 57 48 58 50 59
REMARK SMILES IDX 51 60 52 61 53 63 54 64 83 65 55 66 82 67 84 68 81 69 56 70
REMARK SMILES IDX 57 71 58 72 59 74 80 75 60 76 67 77 75 78 61 79 62 80 68 81
REMARK SMILES IDX 74 82 69 83 76 84 77 85 78 86 79 87 63 89 64 90 65 91 66 92
REMARK SMILES IDX 70 94 71 95 72 96 73 97
REMARK H PARENT 41 5 44 6 33 15 8 26 29 42 23 47 16 52 52 62 58 73 79 88 66 93
REMARK H PARENT 73 98
REMARK Flexibility Score: inf
ROOT
ATOM      1  O   UNL     1      31.878  39.216  60.200  1.00  0.00    -0.248 OA
ATOM      2  N   UNL     1      32.686  38.825  58.720  1.00  0.00    -0.308 N 
ATOM      3  N   UNL     1      32.006  40.402  58.945  1.00  0.00    -0.308 N 
ATOM      4  C   UNL     1      32.190  39.481  59.288  1.00  0.00     0.323 C 
ATOM      5  H   UNL     1      32.880  38.989  58.154  1.00  0.00     0.171 HD
ATOM      6  H   UNL     1      32.199  40.566  58.379  1.00  0.00     0.171 HD
ENDROOT
BRANCH   2   7
ATOM      7  C   UNL     1      32.871  37.904  59.063  1.00  0.00     0.043 A 
ATOM      8  C   UNL     1      32.315  36.314  59.467  1.00  0.00     0.042 A 
ATOM      9  C   UNL     1      32.130  37.235  59.124  1.00  0.00     0.040 A 
ATOM     10  C   UNL     1      33.241  36.062  59.749  1.00  0.00     0.014 A 
ATOM     11  C   UNL     1      33.981  36.732  59.688  1.00  0.00     0.003 A 
ATOM     12  C   UNL     1      33.796  37.653  59.345  1.00  0.00     0.026 A 
BRANCH   8  13
ATOM     13  C   UNL     1      31.575  35.646  59.527  1.00  0.00     0.255 C 
ATOM     14  N   UNL     1      31.587  34.831  58.947  1.00  0.00    -0.322 N 
ATOM     15  H   UNL     1      32.054  34.740  58.550  1.00  0.00     0.170 HD
ATOM     16  O   UNL     1      30.822  35.792  60.169  1.00  0.00    -0.269 OA
BRANCH  14  17
ATOM     17  C   UNL     1      30.846  34.163  59.009  1.00  0.00     0.045 A 
ATOM     18  C   UNL     1      29.154  33.802  59.086  1.00  0.00     0.042 A 
ATOM     19  C   UNL     1      29.895  34.470  59.024  1.00  0.00     0.040 A 
ATOM     20  C   UNL     1      29.363  32.826  59.131  1.00  0.00     0.014 A 
ATOM     21  C   UNL     1      30.315  32.517  59.115  1.00  0.00     0.006 A 
ATOM     22  C   UNL     1      31.056  33.186  59.054  1.00  0.00    -0.027 A 
ATOM     23  C   UNL     1      32.007  32.878  59.038  1.00  0.00     0.046 C 
BRANCH  18  24
ATOM     24  C   UNL     1      28.202  34.110  59.101  1.00  0.00     0.255 C 
ATOM     25  N   UNL     1      27.952  34.981  58.677  1.00  0.00    -0.321 N 
ATOM     26  H   UNL     1      28.386  35.329  58.404  1.00  0.00     0.170 HD
ATOM     27  O   UNL     1      27.502  33.549  59.541  1.00  0.00    -0.269 OA
BRANCH  25  28
ATOM     28  C   UNL     1      27.000  35.289  58.693  1.00  0.00     0.050 A 
ATOM     29  C   UNL     1      26.436  36.377  59.956  1.00  0.00     0.105 A 
ATOM     30  C   UNL     1      26.237  35.845  59.133  1.00  0.00     0.028 A 
ATOM     31  C   UNL     1      25.713  36.916  60.389  1.00  0.00     0.046 A 
ATOM     32  C   UNL     1      25.316  35.851  58.743  1.00  0.00     0.008 A 
ATOM     33  C   UNL     1      24.792  36.922  60.000  1.00  0.00     0.096 A 
ATOM     34  C   UNL     1      25.095  35.302  57.887  1.00  0.00     0.102 A 
ATOM     35  C   UNL     1      24.594  36.389  59.177  1.00  0.00     0.033 A 
ATOM     36  C   UNL     1      26.801  34.732  57.835  1.00  0.00     0.028 A 
ATOM     37  C   UNL     1      25.843  34.738  57.430  1.00  0.00     0.025 A 
BRANCH  29  38
ATOM     38  S   UNL     1      27.083  36.681  60.656  1.00  0.00     0.295 S 
ATOM     39  O   UNL     1      27.402  37.406  60.045  1.00  0.00    -0.194 OA
ATOM     40  O   UNL     1      26.763  35.956  61.266  1.00  0.00    -0.194 OA
BRANCH  38  41
ATOM     41  O   UNL     1      27.729  36.985  61.356  1.00  0.00    -0.282 OA
ATOM     42  H   UNL     1      27.529  37.111  61.929  1.00  0.00     0.234 HD
ENDBRANCH  38  41
ENDBRANCH  29  38
BRANCH  33  43
ATOM     43  S   UNL     1      24.070  37.460  60.434  1.00  0.00     0.294 S 
ATOM     44  O   UNL     1      23.847  36.686  61.025  1.00  0.00    -0.194 OA
ATOM     45  O   UNL     1      24.293  38.235  59.842  1.00  0.00    -0.194 OA
BRANCH  43  46
ATOM     46  O   UNL     1      23.348  38.000  60.867  1.00  0.00    -0.282 OA
ATOM     47  H   UNL     1      22.901  37.717  61.190  1.00  0.00     0.234 HD
ENDBRANCH  43  46
ENDBRANCH  33  43
BRANCH  34  48
ATOM     48  S   UNL     1      24.170  35.315  57.506  1.00  0.00     0.295 S 
ATOM     49  O   UNL     1      23.900  34.588  58.137  1.00  0.00    -0.194 OA
ATOM     50  O   UNL     1      24.440  36.043  56.875  1.00  0.00    -0.194 OA
BRANCH  48  51
ATOM     51  O   UNL     1      23.245  35.328  57.126  1.00  0.00    -0.282 OA
ATOM     52  H   UNL     1      23.017  34.823  56.848  1.00  0.00     0.234 HD
ENDBRANCH  48  51
ENDBRANCH  34  48
ENDBRANCH  25  28
ENDBRANCH  18  24
ENDBRANCH  14  17
ENDBRANCH   8  13
ENDBRANCH   2   7
BRANCH   3  53
ATOM     53  C   UNL     1      31.509  41.057  59.514  1.00  0.00     0.043 A 
ATOM     54  C   UNL     1      30.908  41.734  59.089  1.00  0.00     0.040 A 
ATOM     55  C   UNL     1      31.615  41.036  60.508  1.00  0.00     0.026 A 
ATOM     56  C   UNL     1      30.412  42.389  59.660  1.00  0.00     0.042 A 
ATOM     57  C   UNL     1      31.119  41.691  61.078  1.00  0.00     0.003 A 
ATOM     58  C   UNL     1      30.517  42.367  60.654  1.00  0.00     0.014 A 
BRANCH  56  59
ATOM     59  C   UNL     1      29.810  43.066  59.235  1.00  0.00     0.255 C 
ATOM     60  O   UNL     1      28.819  42.992  59.346  1.00  0.00    -0.269 OA
ATOM     61  N   UNL     1      30.199  43.816  58.701  1.00  0.00    -0.322 N 
ATOM     62  H   UNL     1      30.814  43.861  58.632  1.00  0.00     0.170 HD
BRANCH  61  63
ATOM     63  C   UNL     1      29.598  44.492  58.276  1.00  0.00     0.045 A 
ATOM     64  C   UNL     1      28.725  44.208  57.880  1.00  0.00     0.040 A 
ATOM     65  C   UNL     1      29.869  45.455  58.248  1.00  0.00    -0.027 A 
ATOM     66  C   UNL     1      28.123  44.884  57.455  1.00  0.00     0.042 A 
ATOM     67  C   UNL     1      29.267  46.131  57.824  1.00  0.00     0.006 A 
ATOM     68  C   UNL     1      30.742  45.740  58.644  1.00  0.00     0.046 C 
ATOM     69  C   UNL     1      28.395  45.846  57.428  1.00  0.00     0.014 A 
BRANCH  66  70
ATOM     70  C   UNL     1      27.251  44.599  57.059  1.00  0.00     0.255 C 
ATOM     71  O   UNL     1      26.476  45.231  57.046  1.00  0.00    -0.269 OA
ATOM     72  N   UNL     1      27.152  43.680  56.677  1.00  0.00    -0.321 N 
ATOM     73  H   UNL     1      27.743  43.556  56.823  1.00  0.00     0.170 HD
BRANCH  72  74
ATOM     74  C   UNL     1      26.280  43.393  56.280  1.00  0.00     0.050 A 
ATOM     75  C   UNL     1      26.233  42.551  55.671  1.00  0.00     0.028 A 
ATOM     76  C   UNL     1      25.413  43.936  56.475  1.00  0.00     0.028 A 
ATOM     77  C   UNL     1      25.366  42.256  55.269  1.00  0.00     0.008 A 
ATOM     78  C   UNL     1      27.070  42.034  55.488  1.00  0.00     0.105 A 
ATOM     79  C   UNL     1      24.510  43.629  56.057  1.00  0.00     0.025 A 
ATOM     80  C   UNL     1      24.486  42.783  55.450  1.00  0.00     0.102 A 
ATOM     81  C   UNL     1      25.336  41.444  54.686  1.00  0.00     0.033 A 
ATOM     82  C   UNL     1      27.039  41.223  54.904  1.00  0.00     0.046 A 
ATOM     83  C   UNL     1      26.172  40.928  54.503  1.00  0.00     0.096 A 
BRANCH  78  84
ATOM     84  S   UNL     1      28.054  41.907  55.614  1.00  0.00     0.295 S 
ATOM     85  O   UNL     1      29.037  41.779  55.740  1.00  0.00    -0.194 OA
ATOM     86  O   UNL     1      27.877  41.354  56.429  1.00  0.00    -0.194 OA
BRANCH  84  87
ATOM     87  O   UNL     1      28.230  42.459  54.800  1.00  0.00    -0.282 OA
ATOM     88  H   UNL     1      28.050  42.256  54.242  1.00  0.00     0.234 HD
ENDBRANCH  84  87
ENDBRANCH  78  84
BRANCH  80  89
ATOM     89  S   UNL     1      23.624  42.480  55.044  1.00  0.00     0.295 S 
ATOM     90  O   UNL     1      23.478  41.860  55.815  1.00  0.00    -0.194 OA
ATOM     91  O   UNL     1      23.770  43.099  54.273  1.00  0.00    -0.194 OA
BRANCH  89  92
ATOM     92  O   UNL     1      22.762  42.177  54.637  1.00  0.00    -0.282 OA
ATOM     93  H   UNL     1      22.551  42.448  54.121  1.00  0.00     0.234 HD
ENDBRANCH  89  92
ENDBRANCH  80  89
BRANCH  83  94
ATOM     94  S   UNL     1      26.142  40.117  53.919  1.00  0.00     0.294 S 
ATOM     95  O   UNL     1      26.668  40.600  53.220  1.00  0.00    -0.194 OA
ATOM     96  O   UNL     1      25.615  39.633  54.619  1.00  0.00    -0.194 OA
BRANCH  94  97
ATOM     97  O   UNL     1      26.111  39.305  53.336  1.00  0.00    -0.282 OA
ATOM     98  H   UNL     1      25.794  38.805  53.517  1.00  0.00     0.234 HD
ENDBRANCH  94  97
ENDBRANCH  83  94
ENDBRANCH  72  74
ENDBRANCH  66  70
ENDBRANCH  61  63
ENDBRANCH  56  59
ENDBRANCH   3  53
TORSDOF 22
ENDMDL
MODEL 5
REMARK VINA RESULT:   -14.062      6.225      9.760
REMARK INTER + INTRA:          20.285
REMARK INTER:                 -24.499
REMARK INTRA:                  44.784
REMARK UNBOUND:                49.966
REMARK SMILES Cc1ccc(C(=O)Nc2ccc(S(=O)(=O)O)c3cc(S(=O)(=O)O)cc(S(=O)(=O)O)c23)cc1NC(=O)c1cccc(NC(=O)Nc2cccc(C(=O)Nc3cc(C(=O)Nc4ccc(S(=O)(=O)O)c5cc(S(=O)(=O)O)cc(S(=O)(=O)O)c45)ccc3C)c2)c1
REMARK SMILES IDX 43 1 41 2 44 3 42 4 40 7 36 8 86 9 37 10 38 11 39 12 34 13
REMARK SMILES IDX 33 14 35 16 32 17 5 18 31 19 4 20 3 21 2 22 1 23 6 24 8 25
REMARK SMILES IDX 7 27 9 28 25 29 30 30 24 31 17 32 19 33 12 34 18 35 10 36
REMARK SMILES IDX 11 37 26 38 27 39 28 40 29 41 20 43 21 44 22 45 23 46 13 48
REMARK SMILES IDX 14 49 15 50 16 51 45 53 85 54 46 55 49 56 47 57 48 58 50 59
REMARK SMILES IDX 51 60 52 61 53 63 54 64 83 65 55 66 82 67 84 68 81 69 56 70
REMARK SMILES IDX 57 71 58 72 59 74 80 75 60 76 67 77 75 78 61 79 62 80 68 81
REMARK SMILES IDX 74 82 69 83 76 84 77 85 78 86 79 87 63 89 64 90 65 91 66 92
REMARK SMILES IDX 70 94 71 95 72 96 73 97
REMARK H PARENT 41 5 44 6 33 15 8 26 29 42 23 47 16 52 52 62 58 73 79 88 66 93
REMARK H PARENT 73 98
REMARK Flexibility Score: inf
ROOT
ATOM      1  O   UNL     1      32.372  30.915  58.554  1.00  0.00    -0.248 OA
ATOM      2  N   UNL     1      32.943  32.548  58.498  1.00  0.00    -0.308 N 
ATOM      3  N   UNL     1      33.167  31.601  59.931  1.00  0.00    -0.308 N 
ATOM      4  C   UNL     1      32.827  31.688  58.994  1.00  0.00     0.323 C 
ATOM      5  H   UNL     1      33.226  33.028  58.772  1.00  0.00     0.171 HD
ATOM      6  H   UNL     1      33.449  32.080  60.204  1.00  0.00     0.171 HD
ENDROOT
BRANCH   2   7
ATOM      7  C   UNL     1      32.603  32.636  57.562  1.00  0.00     0.043 A 
ATOM      8  C   UNL     1      31.297  32.917  56.459  1.00  0.00     0.042 A 
ATOM      9  C   UNL     1      31.636  32.829  57.396  1.00  0.00     0.040 A 
ATOM     10  C   UNL     1      31.925  32.811  55.688  1.00  0.00     0.014 A 
ATOM     11  C   UNL     1      32.892  32.618  55.855  1.00  0.00     0.003 A 
ATOM     12  C   UNL     1      33.231  32.530  56.791  1.00  0.00     0.026 A 
BRANCH   8  13
ATOM     13  C   UNL     1      30.331  33.110  56.294  1.00  0.00     0.255 C 
ATOM     14  N   UNL     1      29.876  32.735  55.487  1.00  0.00    -0.322 N 
ATOM     15  H   UNL     1      30.194  32.382  55.087  1.00  0.00     0.170 HD
ATOM     16  O   UNL     1      29.818  33.678  56.938  1.00  0.00    -0.269 OA
BRANCH  14  17
ATOM     17  C   UNL     1      28.909  32.929  55.322  1.00  0.00     0.045 A 
ATOM     18  C   UNL     1      27.335  33.325  55.926  1.00  0.00     0.042 A 
ATOM     19  C   UNL     1      28.302  33.131  56.090  1.00  0.00     0.040 A 
ATOM     20  C   UNL     1      26.975  33.316  54.993  1.00  0.00     0.014 A 
ATOM     21  C   UNL     1      27.582  33.113  54.224  1.00  0.00     0.006 A 
ATOM     22  C   UNL     1      28.549  32.920  54.389  1.00  0.00    -0.027 A 
ATOM     23  C   UNL     1      29.156  32.717  53.621  1.00  0.00     0.046 C 
BRANCH  18  24
ATOM     24  C   UNL     1      26.728  33.528  56.694  1.00  0.00     0.255 C 
ATOM     25  N   UNL     1      26.672  34.459  57.055  1.00  0.00    -0.321 N 
ATOM     26  H   UNL     1      27.014  34.910  56.802  1.00  0.00     0.170 HD
ATOM     27  O   UNL     1      26.176  32.800  57.101  1.00  0.00    -0.269 OA
BRANCH  25  28
ATOM     28  C   UNL     1      26.065  34.662  57.823  1.00  0.00     0.050 A 
ATOM     29  C   UNL     1      26.675  34.632  59.474  1.00  0.00     0.105 A 
ATOM     30  C   UNL     1      25.908  34.773  58.847  1.00  0.00     0.028 A 
ATOM     31  C   UNL     1      26.539  34.736  60.460  1.00  0.00     0.046 A 
ATOM     32  C   UNL     1      25.007  35.018  59.205  1.00  0.00     0.008 A 
ATOM     33  C   UNL     1      25.638  34.981  60.818  1.00  0.00     0.096 A 
ATOM     34  C   UNL     1      24.201  35.168  58.564  1.00  0.00     0.102 A 
ATOM     35  C   UNL     1      24.873  35.121  60.190  1.00  0.00     0.033 A 
ATOM     36  C   UNL     1      25.272  34.807  57.164  1.00  0.00     0.028 A 
ATOM     37  C   UNL     1      24.334  35.061  57.537  1.00  0.00     0.025 A 
BRANCH  29  38
ATOM     38  S   UNL     1      27.638  34.410  59.630  1.00  0.00     0.295 S 
ATOM     39  O   UNL     1      27.874  35.378  59.546  1.00  0.00    -0.194 OA
ATOM     40  O   UNL     1      27.400  33.442  59.713  1.00  0.00    -0.194 OA
BRANCH  38  41
ATOM     41  O   UNL     1      28.600  34.187  59.785  1.00  0.00    -0.282 OA
ATOM     42  H   UNL     1      28.771  33.898  60.306  1.00  0.00     0.234 HD
ENDBRANCH  38  41
ENDBRANCH  29  38
BRANCH  33  43
ATOM     43  S   UNL     1      25.504  35.084  61.803  1.00  0.00     0.294 S 
ATOM     44  O   UNL     1      25.417  34.092  61.896  1.00  0.00    -0.194 OA
ATOM     45  O   UNL     1      25.591  36.076  61.710  1.00  0.00    -0.194 OA
BRANCH  43  46
ATOM     46  O   UNL     1      25.370  35.188  62.789  1.00  0.00    -0.282 OA
ATOM     47  H   UNL     1      25.765  34.924  63.185  1.00  0.00     0.234 HD
ENDBRANCH  43  46
ENDBRANCH  33  43
BRANCH  34  48
ATOM     48  S   UNL     1      23.304  35.412  58.934  1.00  0.00     0.295 S 
ATOM     49  O   UNL     1      23.075  34.442  59.020  1.00  0.00    -0.194 OA
ATOM     50  O   UNL     1      23.532  36.382  58.848  1.00  0.00    -0.194 OA
BRANCH  48  51
ATOM     51  O   UNL     1      22.407  35.655  59.303  1.00  0.00    -0.282 OA
ATOM     52  H   UNL     1      21.892  35.430  59.042  1.00  0.00     0.234 HD
ENDBRANCH  48  51
ENDBRANCH  34  48
ENDBRANCH  25  28
ENDBRANCH  18  24
ENDBRANCH  14  17
ENDBRANCH   8  13
ENDBRANCH   2   7
BRANCH   3  53
ATOM     53  C   UNL     1      33.051  30.740  60.427  1.00  0.00     0.043 A 
ATOM     54  C   UNL     1      32.208  30.565  60.935  1.00  0.00     0.040 A 
ATOM     55  C   UNL     1      33.778  30.054  60.413  1.00  0.00     0.026 A 
ATOM     56  C   UNL     1      32.092  29.704  61.430  1.00  0.00     0.042 A 
ATOM     57  C   UNL     1      33.663  29.193  60.908  1.00  0.00     0.003 A 
ATOM     58  C   UNL     1      32.820  29.017  61.417  1.00  0.00     0.014 A 
BRANCH  56  59
ATOM     59  C   UNL     1      31.249  29.529  61.938  1.00  0.00     0.255 C 
ATOM     60  O   UNL     1      30.371  29.836  61.571  1.00  0.00    -0.269 OA
ATOM     61  N   UNL     1      31.284  29.046  62.814  1.00  0.00    -0.322 N 
ATOM     62  H   UNL     1      31.829  28.856  63.042  1.00  0.00     0.170 HD
BRANCH  61  63
ATOM     63  C   UNL     1      30.441  28.871  63.322  1.00  0.00     0.045 A 
ATOM     64  C   UNL     1      29.617  28.575  62.839  1.00  0.00     0.040 A 
ATOM     65  C   UNL     1      30.421  28.992  64.315  1.00  0.00    -0.027 A 
ATOM     66  C   UNL     1      28.774  28.400  63.347  1.00  0.00     0.042 A 
ATOM     67  C   UNL     1      29.578  28.817  64.823  1.00  0.00     0.006 A 
ATOM     68  C   UNL     1      31.245  29.288  64.799  1.00  0.00     0.046 C 
ATOM     69  C   UNL     1      28.755  28.521  64.339  1.00  0.00     0.014 A 
BRANCH  66  70
ATOM     70  C   UNL     1      27.950  28.105  62.863  1.00  0.00     0.255 C 
ATOM     71  O   UNL     1      27.800  27.133  62.678  1.00  0.00    -0.269 OA
ATOM     72  N   UNL     1      27.277  28.780  62.563  1.00  0.00    -0.321 N 
ATOM     73  H   UNL     1      27.626  29.235  62.803  1.00  0.00     0.170 HD
BRANCH  72  74
ATOM     74  C   UNL     1      26.454  28.485  62.079  1.00  0.00     0.050 A 
ATOM     75  C   UNL     1      25.927  29.158  61.483  1.00  0.00     0.028 A 
ATOM     76  C   UNL     1      26.117  27.504  62.167  1.00  0.00     0.028 A 
ATOM     77  C   UNL     1      25.102  28.873  60.995  1.00  0.00     0.008 A 
ATOM     78  C   UNL     1      26.255  30.099  61.403  1.00  0.00     0.105 A 
ATOM     79  C   UNL     1      25.258  27.207  61.658  1.00  0.00     0.025 A 
ATOM     80  C   UNL     1      24.747  27.896  61.068  1.00  0.00     0.102 A 
ATOM     81  C   UNL     1      24.606  29.530  60.426  1.00  0.00     0.033 A 
ATOM     82  C   UNL     1      25.759  30.755  60.835  1.00  0.00     0.046 A 
ATOM     83  C   UNL     1      24.935  30.471  60.346  1.00  0.00     0.096 A 
BRANCH  78  84
ATOM     84  S   UNL     1      26.921  30.807  61.639  1.00  0.00     0.295 S 
ATOM     85  O   UNL     1      27.587  31.514  61.875  1.00  0.00    -0.194 OA
ATOM     86  O   UNL     1      27.491  30.528  60.866  1.00  0.00    -0.194 OA
BRANCH  84  87
ATOM     87  O   UNL     1      26.351  31.085  62.412  1.00  0.00    -0.282 OA
ATOM     88  H   UNL     1      26.275  31.687  62.539  1.00  0.00     0.234 HD
ENDBRANCH  84  87
ENDBRANCH  78  84
BRANCH  80  89
ATOM     89  S   UNL     1      23.921  27.622  60.575  1.00  0.00     0.295 S 
ATOM     90  O   UNL     1      24.478  27.351  59.790  1.00  0.00    -0.194 OA
ATOM     91  O   UNL     1      23.364  27.893  61.360  1.00  0.00    -0.194 OA
BRANCH  89  92
ATOM     92  O   UNL     1      23.095  27.348  60.083  1.00  0.00    -0.282 OA
ATOM     93  H   UNL     1      22.547  27.596  60.236  1.00  0.00     0.234 HD
ENDBRANCH  89  92
ENDBRANCH  80  89
BRANCH  83  94
ATOM     94  S   UNL     1      24.439  31.127  59.778  1.00  0.00     0.294 S 
ATOM     95  O   UNL     1      24.012  31.513  60.596  1.00  0.00    -0.194 OA
ATOM     96  O   UNL     1      24.866  30.741  58.960  1.00  0.00    -0.194 OA
BRANCH  94  97
ATOM     97  O   UNL     1      23.943  31.783  59.209  1.00  0.00    -0.282 OA
ATOM     98  H   UNL     1      23.984  32.390  59.329  1.00  0.00     0.234 HD
ENDBRANCH  94  97
ENDBRANCH  83  94
ENDBRANCH  72  74
ENDBRANCH  66  70
ENDBRANCH  61  63
ENDBRANCH  56  59
ENDBRANCH   3  53
TORSDOF 22
ENDMDL
MODEL 6
REMARK VINA RESULT:   -14.024      3.806      7.258
REMARK INTER + INTRA:          20.366
REMARK INTER:                 -28.145
REMARK INTRA:                  48.511
REMARK UNBOUND:                49.966
REMARK SMILES Cc1ccc(C(=O)Nc2ccc(S(=O)(=O)O)c3cc(S(=O)(=O)O)cc(S(=O)(=O)O)c23)cc1NC(=O)c1cccc(NC(=O)Nc2cccc(C(=O)Nc3cc(C(=O)Nc4ccc(S(=O)(=O)O)c5cc(S(=O)(=O)O)cc(S(=O)(=O)O)c45)ccc3C)c2)c1
REMARK SMILES IDX 43 1 41 2 44 3 42 4 40 7 36 8 86 9 37 10 38 11 39 12 34 13
REMARK SMILES IDX 33 14 35 16 32 17 5 18 31 19 4 20 3 21 2 22 1 23 6 24 8 25
REMARK SMILES IDX 7 27 9 28 25 29 30 30 24 31 17 32 19 33 12 34 18 35 10 36
REMARK SMILES IDX 11 37 26 38 27 39 28 40 29 41 20 43 21 44 22 45 23 46 13 48
REMARK SMILES IDX 14 49 15 50 16 51 45 53 85 54 46 55 49 56 47 57 48 58 50 59
REMARK SMILES IDX 51 60 52 61 53 63 54 64 83 65 55 66 82 67 84 68 81 69 56 70
REMARK SMILES IDX 57 71 58 72 59 74 80 75 60 76 67 77 75 78 61 79 62 80 68 81
REMARK SMILES IDX 74 82 69 83 76 84 77 85 78 86 79 87 63 89 64 90 65 91 66 92
REMARK SMILES IDX 70 94 71 95 72 96 73 97
REMARK H PARENT 41 5 44 6 33 15 8 26 29 42 23 47 16 52 52 62 58 73 79 88 66 93
REMARK H PARENT 73 98
REMARK Flexibility Score: inf
ROOT
ATOM      1  O   UNL     1      34.474  38.598  58.781  1.00  0.00    -0.248 OA
ATOM      2  N   UNL     1      35.060  39.313  57.316  1.00  0.00    -0.308 N 
ATOM      3  N   UNL     1      35.442  37.665  57.689  1.00  0.00    -0.308 N 
ATOM      4  C   UNL     1      34.992  38.525  57.928  1.00  0.00     0.323 C 
ATOM      5  H   UNL     1      35.382  39.268  56.788  1.00  0.00     0.171 HD
ATOM      6  H   UNL     1      35.763  37.620  57.161  1.00  0.00     0.171 HD
ENDROOT
BRANCH   2   7
ATOM      7  C   UNL     1      34.611  40.173  57.556  1.00  0.00     0.043 A 
ATOM      8  C   UNL     1      33.164  41.077  57.860  1.00  0.00     0.042 A 
ATOM      9  C   UNL     1      33.614  40.216  57.621  1.00  0.00     0.040 A 
ATOM     10  C   UNL     1      33.711  41.895  58.035  1.00  0.00     0.014 A 
ATOM     11  C   UNL     1      34.709  41.852  57.970  1.00  0.00     0.003 A 
ATOM     12  C   UNL     1      35.158  40.991  57.730  1.00  0.00     0.026 A 
BRANCH   8  13
ATOM     13  C   UNL     1      32.168  41.118  57.925  1.00  0.00     0.255 C 
ATOM     14  N   UNL     1      31.711  40.870  58.780  1.00  0.00    -0.322 N 
ATOM     15  H   UNL     1      32.045  40.691  59.270  1.00  0.00     0.170 HD
ATOM     16  O   UNL     1      31.627  41.408  57.135  1.00  0.00    -0.269 OA
BRANCH  14  17
ATOM     17  C   UNL     1      30.714  40.912  58.843  1.00  0.00     0.045 A 
ATOM     18  C   UNL     1      29.228  41.764  58.585  1.00  0.00     0.042 A 
ATOM     19  C   UNL     1      30.226  41.722  58.521  1.00  0.00     0.040 A 
ATOM     20  C   UNL     1      28.720  40.995  58.972  1.00  0.00     0.014 A 
ATOM     21  C   UNL     1      29.208  40.184  59.295  1.00  0.00     0.006 A 
ATOM     22  C   UNL     1      30.205  40.142  59.231  1.00  0.00    -0.027 A 
ATOM     23  C   UNL     1      30.694  39.332  59.553  1.00  0.00     0.046 C 
BRANCH  18  24
ATOM     24  C   UNL     1      28.740  42.575  58.262  1.00  0.00     0.255 C 
ATOM     25  N   UNL     1      28.874  42.899  57.326  1.00  0.00    -0.321 N 
ATOM     26  H   UNL     1      29.259  42.598  56.946  1.00  0.00     0.170 HD
ATOM     27  O   UNL     1      28.118  43.062  58.876  1.00  0.00    -0.269 OA
BRANCH  25  28
ATOM     28  C   UNL     1      28.385  43.710  57.003  1.00  0.00     0.050 A 
ATOM     29  C   UNL     1      26.850  43.549  56.157  1.00  0.00     0.105 A 
ATOM     30  C   UNL     1      27.569  44.142  56.521  1.00  0.00     0.028 A 
ATOM     31  C   UNL     1      26.061  43.950  55.692  1.00  0.00     0.046 A 
ATOM     32  C   UNL     1      27.498  45.135  56.420  1.00  0.00     0.008 A 
ATOM     33  C   UNL     1      25.990  44.942  55.591  1.00  0.00     0.096 A 
ATOM     34  C   UNL     1      28.239  45.764  56.794  1.00  0.00     0.102 A 
ATOM     35  C   UNL     1      26.709  45.534  55.955  1.00  0.00     0.033 A 
ATOM     36  C   UNL     1      29.138  44.321  57.385  1.00  0.00     0.028 A 
ATOM     37  C   UNL     1      29.064  45.354  57.280  1.00  0.00     0.025 A 
BRANCH  29  38
ATOM     38  S   UNL     1      26.476  42.634  56.005  1.00  0.00     0.295 S 
ATOM     39  O   UNL     1      27.053  42.534  55.194  1.00  0.00    -0.194 OA
ATOM     40  O   UNL     1      25.900  42.735  56.816  1.00  0.00    -0.194 OA
BRANCH  38  41
ATOM     41  O   UNL     1      26.102  41.719  55.853  1.00  0.00    -0.282 OA
ATOM     42  H   UNL     1      26.442  41.219  55.989  1.00  0.00     0.234 HD
ENDBRANCH  38  41
ENDBRANCH  29  38
BRANCH  33  43
ATOM     43  S   UNL     1      25.200  45.342  55.126  1.00  0.00     0.294 S 
ATOM     44  O   UNL     1      24.679  45.306  55.978  1.00  0.00    -0.194 OA
ATOM     45  O   UNL     1      25.722  45.378  54.273  1.00  0.00    -0.194 OA
BRANCH  43  46
ATOM     46  O   UNL     1      24.411  45.741  54.660  1.00  0.00    -0.282 OA
ATOM     47  H   UNL     1      24.094  45.408  54.244  1.00  0.00     0.234 HD
ENDBRANCH  43  46
ENDBRANCH  33  43
BRANCH  34  48
ATOM     48  S   UNL     1      28.158  46.755  56.687  1.00  0.00     0.295 S 
ATOM     49  O   UNL     1      28.724  46.712  55.864  1.00  0.00    -0.194 OA
ATOM     50  O   UNL     1      27.591  46.798  57.510  1.00  0.00    -0.194 OA
BRANCH  48  51
ATOM     51  O   UNL     1      28.077  47.746  56.580  1.00  0.00    -0.282 OA
ATOM     52  H   UNL     1      27.862  48.092  57.047  1.00  0.00     0.234 HD
ENDBRANCH  48  51
ENDBRANCH  34  48
ENDBRANCH  25  28
ENDBRANCH  18  24
ENDBRANCH  14  17
ENDBRANCH   8  13
ENDBRANCH   2   7
BRANCH   3  53
ATOM     53  C   UNL     1      35.374  36.878  58.301  1.00  0.00     0.043 A 
ATOM     54  C   UNL     1      34.478  36.489  58.518  1.00  0.00     0.040 A 
ATOM     55  C   UNL     1      36.201  36.479  58.697  1.00  0.00     0.026 A 
ATOM     56  C   UNL     1      34.411  35.701  59.131  1.00  0.00     0.042 A 
ATOM     57  C   UNL     1      36.134  35.691  59.310  1.00  0.00     0.003 A 
ATOM     58  C   UNL     1      35.239  35.303  59.527  1.00  0.00     0.014 A 
BRANCH  56  59
ATOM     59  C   UNL     1      33.516  35.313  59.349  1.00  0.00     0.255 C 
ATOM     60  O   UNL     1      33.075  35.529  60.220  1.00  0.00    -0.269 OA
ATOM     61  N   UNL     1      33.061  34.708  58.695  1.00  0.00    -0.322 N 
ATOM     62  H   UNL     1      33.334  34.573  58.155  1.00  0.00     0.170 HD
BRANCH  61  63
ATOM     63  C   UNL     1      32.165  34.319  58.912  1.00  0.00     0.045 A 
ATOM     64  C   UNL     1      31.390  34.922  59.102  1.00  0.00     0.040 A 
ATOM     65  C   UNL     1      32.045  33.326  58.941  1.00  0.00    -0.027 A 
ATOM     66  C   UNL     1      30.495  34.533  59.319  1.00  0.00     0.042 A 
ATOM     67  C   UNL     1      31.149  32.938  59.158  1.00  0.00     0.006 A 
ATOM     68  C   UNL     1      32.820  32.723  58.752  1.00  0.00     0.046 C 
ATOM     69  C   UNL     1      30.375  33.542  59.347  1.00  0.00     0.014 A 
BRANCH  66  70
ATOM     70  C   UNL     1      29.721  35.137  59.508  1.00  0.00     0.255 C 
ATOM     71  O   UNL     1      29.876  36.040  59.908  1.00  0.00    -0.269 OA
ATOM     72  N   UNL     1      28.791  34.838  59.296  1.00  0.00    -0.321 N 
ATOM     73  H   UNL     1      29.012  34.298  59.085  1.00  0.00     0.170 HD
BRANCH  72  74
ATOM     74  C   UNL     1      28.015  35.441  59.485  1.00  0.00     0.050 A 
ATOM     75  C   UNL     1      27.132  35.345  58.942  1.00  0.00     0.028 A 
ATOM     76  C   UNL     1      28.087  36.170  60.225  1.00  0.00     0.028 A 
ATOM     77  C   UNL     1      26.351  35.943  59.123  1.00  0.00     0.008 A 
ATOM     78  C   UNL     1      27.071  34.643  58.232  1.00  0.00     0.105 A 
ATOM     79  C   UNL     1      27.274  36.792  60.414  1.00  0.00     0.025 A 
ATOM     80  C   UNL     1      26.400  36.678  59.859  1.00  0.00     0.102 A 
ATOM     81  C   UNL     1      25.509  35.839  58.594  1.00  0.00     0.033 A 
ATOM     82  C   UNL     1      26.228  34.539  57.703  1.00  0.00     0.046 A 
ATOM     83  C   UNL     1      25.448  35.137  57.884  1.00  0.00     0.096 A 
BRANCH  78  84
ATOM     84  S   UNL     1      27.486  33.892  57.718  1.00  0.00     0.295 S 
ATOM     85  O   UNL     1      27.901  33.142  57.204  1.00  0.00    -0.194 OA
ATOM     86  O   UNL     1      27.161  33.242  58.405  1.00  0.00    -0.194 OA
BRANCH  84  87
ATOM     87  O   UNL     1      27.811  34.543  57.031  1.00  0.00    -0.282 OA
ATOM     88  H   UNL     1      28.248  34.373  56.625  1.00  0.00     0.234 HD
ENDBRANCH  84  87
ENDBRANCH  78  84
BRANCH  80  89
ATOM     89  S   UNL     1      25.613  37.271  60.031  1.00  0.00     0.295 S 
ATOM     90  O   UNL     1      25.275  36.625  60.716  1.00  0.00    -0.194 OA
ATOM     91  O   UNL     1      25.951  37.917  59.347  1.00  0.00    -0.194 OA
BRANCH  89  92
ATOM     92  O   UNL     1      24.827  37.865  60.204  1.00  0.00    -0.282 OA
ATOM     93  H   UNL     1      24.913  38.472  60.302  1.00  0.00     0.234 HD
ENDBRANCH  89  92
ENDBRANCH  80  89
BRANCH  83  94
ATOM     94  S   UNL     1      24.605  35.033  57.355  1.00  0.00     0.294 S 
ATOM     95  O   UNL     1      25.024  35.525  56.592  1.00  0.00    -0.194 OA
ATOM     96  O   UNL     1      24.187  34.541  58.118  1.00  0.00    -0.194 OA
BRANCH  94  97
ATOM     97  O   UNL     1      23.763  34.930  56.826  1.00  0.00    -0.282 OA
ATOM     98  H   UNL     1      23.219  35.097  57.072  1.00  0.00     0.234 HD
ENDBRANCH  94  97
ENDBRANCH  83  94
ENDBRANCH  72  74
ENDBRANCH  66  70
ENDBRANCH  61  63
ENDBRANCH  56  59
ENDBRANCH   3  53
TORSDOF 22
ENDMDL
MODEL 7
REMARK VINA RESULT:   -13.971      3.327      7.125
REMARK INTER + INTRA:          20.477
REMARK INTER:                 -27.760
REMARK INTRA:                  48.238
REMARK UNBOUND:                49.966
REMARK SMILES Cc1ccc(C(=O)Nc2ccc(S(=O)(=O)O)c3cc(S(=O)(=O)O)cc(S(=O)(=O)O)c23)cc1NC(=O)c1cccc(NC(=O)Nc2cccc(C(=O)Nc3cc(C(=O)Nc4ccc(S(=O)(=O)O)c5cc(S(=O)(=O)O)cc(S(=O)(=O)O)c45)ccc3C)c2)c1
REMARK SMILES IDX 43 1 41 2 44 3 42 4 40 7 36 8 86 9 37 10 38 11 39 12 34 13
REMARK SMILES IDX 33 14 35 16 32 17 5 18 31 19 4 20 3 21 2 22 1 23 6 24 8 25
REMARK SMILES IDX 7 27 9 28 25 29 30 30 24 31 17 32 19 33 12 34 18 35 10 36
REMARK SMILES IDX 11 37 26 38 27 39 28 40 29 41 20 43 21 44 22 45 23 46 13 48
REMARK SMILES IDX 14 49 15 50 16 51 45 53 85 54 46 55 49 56 47 57 48 58 50 59
REMARK SMILES IDX 51 60 52 61 53 63 54 64 83 65 55 66 82 67 84 68 81 69 56 70
REMARK SMILES IDX 57 71 58 72 59 74 80 75 60 76 67 77 75 78 61 79 62 80 68 81
REMARK SMILES IDX 74 82 69 83 76 84 77 85 78 86 79 87 63 89 64 90 65 91 66 92
REMARK SMILES IDX 70 94 71 95 72 96 73 97
REMARK H PARENT 41 5 44 6 33 15 8 26 29 42 23 47 16 52 52 62 58 73 79 88 66 93
REMARK H PARENT 73 98
REMARK Flexibility Score: inf
ROOT
ATOM      1  O   UNL     1      33.031  38.813  58.556  1.00  0.00    -0.248 OA
ATOM      2  N   UNL     1      32.755  39.901  59.875  1.00  0.00    -0.308 N 
ATOM      3  N   UNL     1      32.742  38.190  60.146  1.00  0.00    -0.308 N 
ATOM      4  C   UNL     1      32.843  38.968  59.526  1.00  0.00     0.323 C 
ATOM      5  H   UNL     1      32.638  39.996  60.477  1.00  0.00     0.171 HD
ATOM      6  H   UNL     1      32.625  38.286  60.747  1.00  0.00     0.171 HD
ENDROOT
BRANCH   2   7
ATOM      7  C   UNL     1      32.856  40.678  59.256  1.00  0.00     0.043 A 
ATOM      8  C   UNL     1      32.200  42.099  58.510  1.00  0.00     0.042 A 
ATOM      9  C   UNL     1      32.099  41.320  59.131  1.00  0.00     0.040 A 
ATOM     10  C   UNL     1      33.058  42.235  58.015  1.00  0.00     0.014 A 
ATOM     11  C   UNL     1      33.815  41.593  58.141  1.00  0.00     0.003 A 
ATOM     12  C   UNL     1      33.714  40.815  58.761  1.00  0.00     0.026 A 
BRANCH   8  13
ATOM     13  C   UNL     1      31.444  42.739  58.386  1.00  0.00     0.255 C 
ATOM     14  N   UNL     1      31.244  43.420  59.090  1.00  0.00    -0.322 N 
ATOM     15  H   UNL     1      31.589  43.446  59.604  1.00  0.00     0.170 HD
ATOM     16  O   UNL     1      30.886  42.698  57.557  1.00  0.00    -0.269 OA
BRANCH  14  17
ATOM     17  C   UNL     1      30.487  44.061  58.965  1.00  0.00     0.045 A 
ATOM     18  C   UNL     1      28.903  44.412  58.358  1.00  0.00     0.042 A 
ATOM     19  C   UNL     1      29.660  43.771  58.484  1.00  0.00     0.040 A 
ATOM     20  C   UNL     1      28.972  45.344  58.715  1.00  0.00     0.014 A 
ATOM     21  C   UNL     1      29.799  45.634  59.196  1.00  0.00     0.006 A 
ATOM     22  C   UNL     1      30.557  44.994  59.322  1.00  0.00    -0.027 A 
ATOM     23  C   UNL     1      31.383  45.284  59.803  1.00  0.00     0.046 C 
BRANCH  18  24
ATOM     24  C   UNL     1      28.076  44.121  57.877  1.00  0.00     0.255 C 
ATOM     25  N   UNL     1      28.037  44.167  56.878  1.00  0.00    -0.321 N 
ATOM     26  H   UNL     1      28.525  44.375  56.558  1.00  0.00     0.170 HD
ATOM     27  O   UNL     1      27.288  43.785  58.393  1.00  0.00    -0.269 OA
BRANCH  25  28
ATOM     28  C   UNL     1      27.210  43.876  56.397  1.00  0.00     0.050 A 
ATOM     29  C   UNL     1      27.045  42.218  55.828  1.00  0.00     0.105 A 
ATOM     30  C   UNL     1      26.657  43.137  55.914  1.00  0.00     0.028 A 
ATOM     31  C   UNL     1      26.526  41.498  55.367  1.00  0.00     0.046 A 
ATOM     32  C   UNL     1      25.752  43.335  55.539  1.00  0.00     0.008 A 
ATOM     33  C   UNL     1      25.620  41.696  54.992  1.00  0.00     0.096 A 
ATOM     34  C   UNL     1      25.336  44.286  55.621  1.00  0.00     0.102 A 
ATOM     35  C   UNL     1      25.234  42.614  55.078  1.00  0.00     0.033 A 
ATOM     36  C   UNL     1      26.813  44.835  56.490  1.00  0.00     0.028 A 
ATOM     37  C   UNL     1      25.871  45.041  56.099  1.00  0.00     0.025 A 
BRANCH  29  38
ATOM     38  S   UNL     1      27.791  41.574  55.995  1.00  0.00     0.295 S 
ATOM     39  O   UNL     1      27.300  41.212  56.788  1.00  0.00    -0.194 OA
ATOM     40  O   UNL     1      28.282  41.937  55.203  1.00  0.00    -0.194 OA
BRANCH  38  41
ATOM     41  O   UNL     1      28.538  40.930  56.162  1.00  0.00    -0.282 OA
ATOM     42  H   UNL     1      28.413  40.355  56.358  1.00  0.00     0.234 HD
ENDBRANCH  38  41
ENDBRANCH  29  38
BRANCH  33  43
ATOM     43  S   UNL     1      25.102  40.976  54.532  1.00  0.00     0.294 S 
ATOM     44  O   UNL     1      24.604  40.792  55.379  1.00  0.00    -0.194 OA
ATOM     45  O   UNL     1      25.601  41.161  53.685  1.00  0.00    -0.194 OA
BRANCH  43  46
ATOM     46  O   UNL     1      24.585  40.256  54.070  1.00  0.00    -0.282 OA
ATOM     47  H   UNL     1      24.724  40.097  53.488  1.00  0.00     0.234 HD
ENDBRANCH  43  46
ENDBRANCH  33  43
BRANCH  34  48
ATOM     48  S   UNL     1      24.430  44.473  55.242  1.00  0.00     0.295 S 
ATOM     49  O   UNL     1      24.847  44.729  54.370  1.00  0.00    -0.194 OA
ATOM     50  O   UNL     1      24.012  44.216  56.113  1.00  0.00    -0.194 OA
BRANCH  48  51
ATOM     51  O   UNL     1      23.524  44.659  54.862  1.00  0.00    -0.282 OA
ATOM     52  H   UNL     1      23.469  44.889  54.289  1.00  0.00     0.234 HD
ENDBRANCH  48  51
ENDBRANCH  34  48
ENDBRANCH  25  28
ENDBRANCH  18  24
ENDBRANCH  14  17
ENDBRANCH   8  13
ENDBRANCH   2   7
BRANCH   3  53
ATOM     53  C   UNL     1      32.830  37.257  59.796  1.00  0.00     0.043 A 
ATOM     54  C   UNL     1      32.016  36.689  59.675  1.00  0.00     0.040 A 
ATOM     55  C   UNL     1      33.733  36.892  59.567  1.00  0.00     0.026 A 
ATOM     56  C   UNL     1      32.105  35.757  59.324  1.00  0.00     0.042 A 
ATOM     57  C   UNL     1      33.822  35.960  59.217  1.00  0.00     0.003 A 
ATOM     58  C   UNL     1      33.008  35.392  59.095  1.00  0.00     0.014 A 
BRANCH  56  59
ATOM     59  C   UNL     1      31.291  35.189  59.203  1.00  0.00     0.255 C 
ATOM     60  O   UNL     1      30.391  35.542  59.462  1.00  0.00    -0.269 OA
ATOM     61  N   UNL     1      31.375  34.268  58.823  1.00  0.00    -0.322 N 
ATOM     62  H   UNL     1      31.933  34.048  58.663  1.00  0.00     0.170 HD
BRANCH  61  63
ATOM     63  C   UNL     1      30.561  33.700  58.702  1.00  0.00     0.045 A 
ATOM     64  C   UNL     1      29.739  34.086  58.283  1.00  0.00     0.040 A 
ATOM     65  C   UNL     1      30.568  32.745  59.000  1.00  0.00    -0.027 A 
ATOM     66  C   UNL     1      28.925  33.518  58.161  1.00  0.00     0.042 A 
ATOM     67  C   UNL     1      29.754  32.177  58.879  1.00  0.00     0.006 A 
ATOM     68  C   UNL     1      31.390  32.359  59.419  1.00  0.00     0.046 C 
ATOM     69  C   UNL     1      28.933  32.564  58.459  1.00  0.00     0.014 A 
BRANCH  66  70
ATOM     70  C   UNL     1      28.104  33.905  57.742  1.00  0.00     0.255 C 
ATOM     71  O   UNL     1      27.999  33.897  56.747  1.00  0.00    -0.269 OA
ATOM     72  N   UNL     1      27.388  34.300  58.317  1.00  0.00    -0.321 N 
ATOM     73  H   UNL     1      27.720  34.164  58.824  1.00  0.00     0.170 HD
BRANCH  72  74
ATOM     74  C   UNL     1      26.566  34.687  57.899  1.00  0.00     0.050 A 
ATOM     75  C   UNL     1      25.977  35.363  58.429  1.00  0.00     0.028 A 
ATOM     76  C   UNL     1      26.295  34.418  56.930  1.00  0.00     0.028 A 
ATOM     77  C   UNL     1      25.153  35.756  58.019  1.00  0.00     0.008 A 
ATOM     78  C   UNL     1      26.243  35.617  59.358  1.00  0.00     0.105 A 
ATOM     79  C   UNL     1      25.438  34.827  56.504  1.00  0.00     0.025 A 
ATOM     80  C   UNL     1      24.863  35.500  57.052  1.00  0.00     0.102 A 
ATOM     81  C   UNL     1      24.596  36.403  58.540  1.00  0.00     0.033 A 
ATOM     82  C   UNL     1      25.686  36.264  59.878  1.00  0.00     0.046 A 
ATOM     83  C   UNL     1      24.863  36.657  59.469  1.00  0.00     0.096 A 
BRANCH  78  84
ATOM     84  S   UNL     1      26.873  35.537  60.131  1.00  0.00     0.295 S 
ATOM     85  O   UNL     1      27.502  35.457  60.904  1.00  0.00    -0.194 OA
ATOM     86  O   UNL     1      26.351  34.756  60.475  1.00  0.00    -0.194 OA
BRANCH  84  87
ATOM     87  O   UNL     1      27.394  36.318  59.787  1.00  0.00    -0.282 OA
ATOM     88  H   UNL     1      27.776  36.627  60.166  1.00  0.00     0.234 HD
ENDBRANCH  84  87
ENDBRANCH  78  84
BRANCH  80  89
ATOM     89  S   UNL     1      24.037  35.899  56.652  1.00  0.00     0.295 S 
ATOM     90  O   UNL     1      23.481  35.199  57.100  1.00  0.00    -0.194 OA
ATOM     91  O   UNL     1      24.594  36.599  56.204  1.00  0.00    -0.194 OA
BRANCH  89  92
ATOM     92  O   UNL     1      23.212  36.298  56.251  1.00  0.00    -0.282 OA
ATOM     93  H   UNL     1      22.923  36.765  56.540  1.00  0.00     0.234 HD
ENDBRANCH  89  92
ENDBRANCH  80  89
BRANCH  83  94
ATOM     94  S   UNL     1      24.306  37.305  59.989  1.00  0.00     0.294 S 
ATOM     95  O   UNL     1      24.967  38.030  59.795  1.00  0.00    -0.194 OA
ATOM     96  O   UNL     1      23.645  36.580  60.184  1.00  0.00    -0.194 OA
BRANCH  94  97
ATOM     97  O   UNL     1      23.749  37.952  60.510  1.00  0.00    -0.282 OA
ATOM     98  H   UNL     1      23.135  37.968  60.428  1.00  0.00     0.234 HD
ENDBRANCH  94  97
ENDBRANCH  83  94
ENDBRANCH  72  74
ENDBRANCH  66  70
ENDBRANCH  61  63
ENDBRANCH  56  59
ENDBRANCH   3  53
TORSDOF 22
ENDMDL
MODEL 8
REMARK VINA RESULT:   -13.875      3.872      7.581
REMARK INTER + INTRA:          20.679
REMARK INTER:                 -27.584
REMARK INTRA:                  48.263
REMARK UNBOUND:                49.966
REMARK SMILES Cc1ccc(C(=O)Nc2ccc(S(=O)(=O)O)c3cc(S(=O)(=O)O)cc(S(=O)(=O)O)c23)cc1NC(=O)c1cccc(NC(=O)Nc2cccc(C(=O)Nc3cc(C(=O)Nc4ccc(S(=O)(=O)O)c5cc(S(=O)(=O)O)cc(S(=O)(=O)O)c45)ccc3C)c2)c1
REMARK SMILES IDX 43 1 41 2 44 3 42 4 40 7 36 8 86 9 37 10 38 11 39 12 34 13
REMARK SMILES IDX 33 14 35 16 32 17 5 18 31 19 4 20 3 21 2 22 1 23 6 24 8 25
REMARK SMILES IDX 7 27 9 28 25 29 30 30 24 31 17 32 19 33 12 34 18 35 10 36
REMARK SMILES IDX 11 37 26 38 27 39 28 40 29 41 20 43 21 44 22 45 23 46 13 48
REMARK SMILES IDX 14 49 15 50 16 51 45 53 85 54 46 55 49 56 47 57 48 58 50 59
REMARK SMILES IDX 51 60 52 61 53 63 54 64 83 65 55 66 82 67 84 68 81 69 56 70
REMARK SMILES IDX 57 71 58 72 59 74 80 75 60 76 67 77 75 78 61 79 62 80 68 81
REMARK SMILES IDX 74 82 69 83 76 84 77 85 78 86 79 87 63 89 64 90 65 91 66 92
REMARK SMILES IDX 70 94 71 95 72 96 73 97
REMARK H PARENT 41 5 44 6 33 15 8 26 29 42 23 47 16 52 52 62 58 73 79 88 66 93
REMARK H PARENT 73 98
REMARK Flexibility Score: inf
ROOT
ATOM      1  O   UNL     1      34.389  41.198  58.015  1.00  0.00    -0.248 OA
ATOM      2  N   UNL     1      33.974  41.712  56.414  1.00  0.00    -0.308 N 
ATOM      3  N   UNL     1      34.375  40.054  56.714  1.00  0.00    -0.308 N 
ATOM      4  C   UNL     1      34.246  40.988  57.048  1.00  0.00     0.323 C 
ATOM      5  H   UNL     1      33.886  41.582  55.814  1.00  0.00     0.171 HD
ATOM      6  H   UNL     1      34.287  39.924  56.115  1.00  0.00     0.171 HD
ENDROOT
BRANCH   2   7
ATOM      7  C   UNL     1      33.845  42.646  56.747  1.00  0.00     0.043 A 
ATOM      8  C   UNL     1      32.802  43.900  57.331  1.00  0.00     0.042 A 
ATOM      9  C   UNL     1      32.931  42.966  56.998  1.00  0.00     0.040 A 
ATOM     10  C   UNL     1      33.587  44.514  57.413  1.00  0.00     0.014 A 
ATOM     11  C   UNL     1      34.501  44.194  57.162  1.00  0.00     0.003 A 
ATOM     12  C   UNL     1      34.630  43.260  56.829  1.00  0.00     0.026 A 
BRANCH   8  13
ATOM     13  C   UNL     1      31.889  44.219  57.581  1.00  0.00     0.255 C 
ATOM     14  N   UNL     1      31.645  44.333  58.544  1.00  0.00    -0.322 N 
ATOM     15  H   UNL     1      32.060  44.205  58.987  1.00  0.00     0.170 HD
ATOM     16  O   UNL     1      31.219  44.426  56.867  1.00  0.00    -0.269 OA
BRANCH  14  17
ATOM     17  C   UNL     1      30.731  44.652  58.793  1.00  0.00     0.045 A 
ATOM     18  C   UNL     1      29.015  44.617  58.563  1.00  0.00     0.042 A 
ATOM     19  C   UNL     1      29.929  44.298  58.314  1.00  0.00     0.040 A 
ATOM     20  C   UNL     1      28.903  45.292  59.293  1.00  0.00     0.014 A 
ATOM     21  C   UNL     1      29.705  45.647  59.773  1.00  0.00     0.006 A 
ATOM     22  C   UNL     1      30.619  45.327  59.523  1.00  0.00    -0.027 A 
ATOM     23  C   UNL     1      31.422  45.682  60.003  1.00  0.00     0.046 C 
BRANCH  18  24
ATOM     24  C   UNL     1      28.212  44.262  58.083  1.00  0.00     0.255 C 
ATOM     25  N   UNL     1      28.170  44.300  57.085  1.00  0.00    -0.321 N 
ATOM     26  H   UNL     1      28.641  44.544  56.763  1.00  0.00     0.170 HD
ATOM     27  O   UNL     1      27.453  43.869  58.601  1.00  0.00    -0.269 OA
BRANCH  25  28
ATOM     28  C   UNL     1      27.368  43.945  56.605  1.00  0.00     0.050 A 
ATOM     29  C   UNL     1      27.323  42.273  56.057  1.00  0.00     0.105 A 
ATOM     30  C   UNL     1      26.871  43.162  56.130  1.00  0.00     0.028 A 
ATOM     31  C   UNL     1      26.858  41.512  55.604  1.00  0.00     0.046 A 
ATOM     32  C   UNL     1      25.955  43.290  55.750  1.00  0.00     0.008 A 
ATOM     33  C   UNL     1      25.942  41.640  55.224  1.00  0.00     0.096 A 
ATOM     34  C   UNL     1      25.472  44.210  55.818  1.00  0.00     0.102 A 
ATOM     35  C   UNL     1      25.491  42.529  55.297  1.00  0.00     0.033 A 
ATOM     36  C   UNL     1      26.903  44.874  56.684  1.00  0.00     0.028 A 
ATOM     37  C   UNL     1      25.950  45.008  56.289  1.00  0.00     0.025 A 
BRANCH  29  38
ATOM     38  S   UNL     1      28.113  41.685  56.235  1.00  0.00     0.295 S 
ATOM     39  O   UNL     1      27.651  41.309  57.039  1.00  0.00    -0.194 OA
ATOM     40  O   UNL     1      28.573  42.062  55.431  1.00  0.00    -0.194 OA
BRANCH  38  41
ATOM     41  O   UNL     1      28.902  41.098  56.412  1.00  0.00    -0.282 OA
ATOM     42  H   UNL     1      28.829  40.484  56.455  1.00  0.00     0.234 HD
ENDBRANCH  38  41
ENDBRANCH  29  38
BRANCH  33  43
ATOM     43  S   UNL     1      25.478  40.879  54.772  1.00  0.00     0.294 S 
ATOM     44  O   UNL     1      25.955  41.094  53.919  1.00  0.00    -0.194 OA
ATOM     45  O   UNL     1      25.002  40.663  55.624  1.00  0.00    -0.194 OA
BRANCH  43  46
ATOM     46  O   UNL     1      25.014  40.117  54.320  1.00  0.00    -0.282 OA
ATOM     47  H   UNL     1      24.672  39.721  54.651  1.00  0.00     0.234 HD
ENDBRANCH  43  46
ENDBRANCH  33  43
BRANCH  34  48
ATOM     48  S   UNL     1      24.556  44.327  55.435  1.00  0.00     0.295 S 
ATOM     49  O   UNL     1      24.957  44.637  54.573  1.00  0.00    -0.194 OA
ATOM     50  O   UNL     1      24.155  44.017  56.297  1.00  0.00    -0.194 OA
BRANCH  48  51
ATOM     51  O   UNL     1      23.640  44.444  55.050  1.00  0.00    -0.282 OA
ATOM     52  H   UNL     1      23.541  44.869  54.610  1.00  0.00     0.234 HD
ENDBRANCH  48  51
ENDBRANCH  34  48
ENDBRANCH  25  28
ENDBRANCH  18  24
ENDBRANCH  14  17
ENDBRANCH   8  13
ENDBRANCH   2   7
BRANCH   3  53
ATOM     53  C   UNL     1      34.647  39.330  57.349  1.00  0.00     0.043 A 
ATOM     54  C   UNL     1      33.951  38.805  57.837  1.00  0.00     0.040 A 
ATOM     55  C   UNL     1      35.617  39.132  57.495  1.00  0.00     0.026 A 
ATOM     56  C   UNL     1      34.224  38.081  58.471  1.00  0.00     0.042 A 
ATOM     57  C   UNL     1      35.890  38.409  58.129  1.00  0.00     0.003 A 
ATOM     58  C   UNL     1      35.193  37.883  58.617  1.00  0.00     0.014 A 
BRANCH  56  59
ATOM     59  C   UNL     1      33.527  37.556  58.959  1.00  0.00     0.255 C 
ATOM     60  O   UNL     1      33.090  37.939  59.773  1.00  0.00    -0.269 OA
ATOM     61  N   UNL     1      33.267  36.646  58.635  1.00  0.00    -0.322 N 
ATOM     62  H   UNL     1      33.538  36.408  58.130  1.00  0.00     0.170 HD
BRANCH  61  63
ATOM     63  C   UNL     1      32.571  36.121  59.123  1.00  0.00     0.045 A 
ATOM     64  C   UNL     1      31.661  36.510  59.269  1.00  0.00     0.040 A 
ATOM     65  C   UNL     1      32.783  35.205  59.465  1.00  0.00    -0.027 A 
ATOM     66  C   UNL     1      30.964  35.984  59.757  1.00  0.00     0.042 A 
ATOM     67  C   UNL     1      32.087  34.680  59.954  1.00  0.00     0.006 A 
ATOM     68  C   UNL     1      33.693  34.816  59.319  1.00  0.00     0.046 C 
ATOM     69  C   UNL     1      31.177  35.070  60.099  1.00  0.00     0.014 A 
BRANCH  66  70
ATOM     70  C   UNL     1      30.055  36.374  59.903  1.00  0.00     0.255 C 
ATOM     71  O   UNL     1      29.959  37.330  60.180  1.00  0.00    -0.269 OA
ATOM     72  N   UNL     1      29.242  35.808  59.771  1.00  0.00    -0.321 N 
ATOM     73  H   UNL     1      29.602  35.325  59.619  1.00  0.00     0.170 HD
BRANCH  72  74
ATOM     74  C   UNL     1      28.332  36.197  59.916  1.00  0.00     0.050 A 
ATOM     75  C   UNL     1      27.486  35.691  59.579  1.00  0.00     0.028 A 
ATOM     76  C   UNL     1      28.225  37.110  60.405  1.00  0.00     0.028 A 
ATOM     77  C   UNL     1      26.572  36.071  59.720  1.00  0.00     0.008 A 
ATOM     78  C   UNL     1      27.596  34.815  59.110  1.00  0.00     0.105 A 
ATOM     79  C   UNL     1      27.273  37.506  60.551  1.00  0.00     0.025 A 
ATOM     80  C   UNL     1      26.440  36.983  60.206  1.00  0.00     0.102 A 
ATOM     81  C   UNL     1      25.768  35.575  59.391  1.00  0.00     0.033 A 
ATOM     82  C   UNL     1      26.793  34.319  58.782  1.00  0.00     0.046 A 
ATOM     83  C   UNL     1      25.879  34.699  58.922  1.00  0.00     0.096 A 
BRANCH  78  84
ATOM     84  S   UNL     1      28.188  34.089  58.759  1.00  0.00     0.295 S 
ATOM     85  O   UNL     1      28.780  33.364  58.407  1.00  0.00    -0.194 OA
ATOM     86  O   UNL     1      28.268  34.576  57.889  1.00  0.00    -0.194 OA
BRANCH  84  87
ATOM     87  O   UNL     1      28.108  33.602  59.628  1.00  0.00    -0.282 OA
ATOM     88  H   UNL     1      28.547  33.667  60.061  1.00  0.00     0.234 HD
ENDBRANCH  84  87
ENDBRANCH  78  84
BRANCH  80  89
ATOM     89  S   UNL     1      25.522  37.355  60.341  1.00  0.00     0.295 S 
ATOM     90  O   UNL     1      25.458  36.880  61.219  1.00  0.00    -0.194 OA
ATOM     91  O   UNL     1      25.586  37.830  59.464  1.00  0.00    -0.194 OA
BRANCH  89  92
ATOM     92  O   UNL     1      24.603  37.727  60.476  1.00  0.00    -0.282 OA
ATOM     93  H   UNL     1      24.164  37.629  60.049  1.00  0.00     0.234 HD
ENDBRANCH  89  92
ENDBRANCH  80  89
BRANCH  83  94
ATOM     94  S   UNL     1      25.075  34.203  58.594  1.00  0.00     0.294 S 
ATOM     95  O   UNL     1      25.087  34.742  57.751  1.00  0.00    -0.194 OA
ATOM     96  O   UNL     1      25.063  33.664  59.436  1.00  0.00    -0.194 OA
BRANCH  94  97
ATOM     97  O   UNL     1      24.271  33.707  58.265  1.00  0.00    -0.282 OA
ATOM     98  H   UNL     1      24.230  33.094  58.347  1.00  0.00     0.234 HD
ENDBRANCH  94  97
ENDBRANCH  83  94
ENDBRANCH  72  74
ENDBRANCH  66  70
ENDBRANCH  61  63
ENDBRANCH  56  59
ENDBRANCH   3  53
TORSDOF 22
ENDMDL
MODEL 9
REMARK VINA RESULT:   -13.858      6.234     10.146
REMARK INTER + INTRA:          20.715
REMARK INTER:                 -23.676
REMARK INTRA:                  44.392
REMARK UNBOUND:                49.966
REMARK SMILES Cc1ccc(C(=O)Nc2ccc(S(=O)(=O)O)c3cc(S(=O)(=O)O)cc(S(=O)(=O)O)c23)cc1NC(=O)c1cccc(NC(=O)Nc2cccc(C(=O)Nc3cc(C(=O)Nc4ccc(S(=O)(=O)O)c5cc(S(=O)(=O)O)cc(S(=O)(=O)O)c45)ccc3C)c2)c1
REMARK SMILES IDX 43 1 41 2 44 3 42 4 40 7 36 8 86 9 37 10 38 11 39 12 34 13
REMARK SMILES IDX 33 14 35 16 32 17 5 18 31 19 4 20 3 21 2 22 1 23 6 24 8 25
REMARK SMILES IDX 7 27 9 28 25 29 30 30 24 31 17 32 19 33 12 34 18 35 10 36
REMARK SMILES IDX 11 37 26 38 27 39 28 40 29 41 20 43 21 44 22 45 23 46 13 48
REMARK SMILES IDX 14 49 15 50 16 51 45 53 85 54 46 55 49 56 47 57 48 58 50 59
REMARK SMILES IDX 51 60 52 61 53 63 54 64 83 65 55 66 82 67 84 68 81 69 56 70
REMARK SMILES IDX 57 71 58 72 59 74 80 75 60 76 67 77 75 78 61 79 62 80 68 81
REMARK SMILES IDX 74 82 69 83 76 84 77 85 78 86 79 87 63 89 64 90 65 91 66 92
REMARK SMILES IDX 70 94 71 95 72 96 73 97
REMARK H PARENT 41 5 44 6 33 15 8 26 29 42 23 47 16 52 52 62 58 73 79 88 66 93
REMARK H PARENT 73 98
REMARK Flexibility Score: inf
ROOT
ATOM      1  O   UNL     1      28.351  28.577  61.375  1.00  0.00    -0.248 OA
ATOM      2  N   UNL     1      27.679  27.124  60.716  1.00  0.00    -0.308 N 
ATOM      3  N   UNL     1      26.713  28.558  60.814  1.00  0.00    -0.308 N 
ATOM      4  C   UNL     1      27.581  28.086  60.968  1.00  0.00     0.323 C 
ATOM      5  H   UNL     1      27.201  26.820  60.463  1.00  0.00     0.171 HD
ATOM      6  H   UNL     1      26.235  28.254  60.562  1.00  0.00     0.171 HD
ENDROOT
BRANCH   2   7
ATOM      7  C   UNL     1      28.547  26.652  60.869  1.00  0.00     0.043 A 
ATOM      8  C   UNL     1      30.267  26.576  60.683  1.00  0.00     0.042 A 
ATOM      9  C   UNL     1      29.399  27.048  60.529  1.00  0.00     0.040 A 
ATOM     10  C   UNL     1      30.283  25.707  61.177  1.00  0.00     0.014 A 
ATOM     11  C   UNL     1      29.430  25.310  61.518  1.00  0.00     0.003 A 
ATOM     12  C   UNL     1      28.562  25.783  61.364  1.00  0.00     0.026 A 
BRANCH   8  13
ATOM     13  C   UNL     1      31.119  26.972  60.342  1.00  0.00     0.255 C 
ATOM     14  N   UNL     1      31.455  26.730  59.433  1.00  0.00    -0.322 N 
ATOM     15  H   UNL     1      31.136  26.334  59.079  1.00  0.00     0.170 HD
ATOM     16  O   UNL     1      31.635  27.612  60.912  1.00  0.00    -0.269 OA
BRANCH  14  17
ATOM     17  C   UNL     1      32.308  27.128  59.093  1.00  0.00     0.045 A 
ATOM     18  C   UNL     1      33.309  28.512  58.809  1.00  0.00     0.042 A 
ATOM     19  C   UNL     1      32.457  28.114  59.149  1.00  0.00     0.040 A 
ATOM     20  C   UNL     1      34.013  27.922  58.413  1.00  0.00     0.014 A 
ATOM     21  C   UNL     1      33.864  26.935  58.356  1.00  0.00     0.006 A 
ATOM     22  C   UNL     1      33.011  26.537  58.696  1.00  0.00    -0.027 A 
ATOM     23  C   UNL     1      32.862  25.551  58.640  1.00  0.00     0.046 C 
BRANCH  18  24
ATOM     24  C   UNL     1      33.458  29.500  58.866  1.00  0.00     0.255 C 
ATOM     25  N   UNL     1      32.961  30.115  58.254  1.00  0.00    -0.321 N 
ATOM     26  H   UNL     1      32.562  29.886  57.840  1.00  0.00     0.170 HD
ATOM     27  O   UNL     1      34.103  29.870  59.533  1.00  0.00    -0.269 OA
BRANCH  25  28
ATOM     28  C   UNL     1      33.110  31.103  58.310  1.00  0.00     0.050 A 
ATOM     29  C   UNL     1      32.028  32.115  59.260  1.00  0.00     0.105 A 
ATOM     30  C   UNL     1      32.831  32.041  58.668  1.00  0.00     0.028 A 
ATOM     31  C   UNL     1      31.748  33.009  59.611  1.00  0.00     0.046 A 
ATOM     32  C   UNL     1      33.353  32.859  58.427  1.00  0.00     0.008 A 
ATOM     33  C   UNL     1      32.270  33.828  59.370  1.00  0.00     0.096 A 
ATOM     34  C   UNL     1      34.191  32.796  57.811  1.00  0.00     0.102 A 
ATOM     35  C   UNL     1      33.072  33.751  58.778  1.00  0.00     0.033 A 
ATOM     36  C   UNL     1      33.945  31.017  57.693  1.00  0.00     0.028 A 
ATOM     37  C   UNL     1      34.488  31.868  57.442  1.00  0.00     0.025 A 
BRANCH  29  38
ATOM     38  S   UNL     1      31.263  31.686  59.741  1.00  0.00     0.295 S 
ATOM     39  O   UNL     1      31.814  31.642  60.576  1.00  0.00    -0.194 OA
ATOM     40  O   UNL     1      30.714  31.731  58.907  1.00  0.00    -0.194 OA
BRANCH  38  41
ATOM     41  O   UNL     1      30.499  31.258  60.223  1.00  0.00    -0.282 OA
ATOM     42  H   UNL     1      30.550  31.120  60.825  1.00  0.00     0.234 HD
ENDBRANCH  38  41
ENDBRANCH  29  38
BRANCH  33  43
ATOM     43  S   UNL     1      31.990  34.720  59.721  1.00  0.00     0.294 S 
ATOM     44  O   UNL     1      31.435  34.869  58.902  1.00  0.00    -0.194 OA
ATOM     45  O   UNL     1      32.545  34.572  60.540  1.00  0.00    -0.194 OA
BRANCH  43  46
ATOM     46  O   UNL     1      31.709  35.613  60.073  1.00  0.00    -0.282 OA
ATOM     47  H   UNL     1      31.126  35.704  60.261  1.00  0.00     0.234 HD
ENDBRANCH  43  46
ENDBRANCH  33  43
BRANCH  34  48
ATOM     48  S   UNL     1      34.705  33.620  57.577  1.00  0.00     0.295 S 
ATOM     49  O   UNL     1      34.145  33.737  56.757  1.00  0.00    -0.194 OA
ATOM     50  O   UNL     1      35.266  33.505  58.397  1.00  0.00    -0.194 OA
BRANCH  48  51
ATOM     51  O   UNL     1      35.219  34.445  57.341  1.00  0.00    -0.282 OA
ATOM     52  H   UNL     1      35.709  34.408  56.964  1.00  0.00     0.234 HD
ENDBRANCH  48  51
ENDBRANCH  34  48
ENDBRANCH  25  28
ENDBRANCH  18  24
ENDBRANCH  14  17
ENDBRANCH   8  13
ENDBRANCH   2   7
BRANCH   3  53
ATOM     53  C   UNL     1      26.615  29.521  61.067  1.00  0.00     0.043 A 
ATOM     54  C   UNL     1      26.814  30.237  60.398  1.00  0.00     0.040 A 
ATOM     55  C   UNL     1      26.320  29.767  61.990  1.00  0.00     0.026 A 
ATOM     56  C   UNL     1      26.716  31.199  60.652  1.00  0.00     0.042 A 
ATOM     57  C   UNL     1      26.222  30.730  62.244  1.00  0.00     0.003 A 
ATOM     58  C   UNL     1      26.421  31.446  61.575  1.00  0.00     0.014 A 
BRANCH  56  59
ATOM     59  C   UNL     1      26.915  31.915  59.982  1.00  0.00     0.255 C 
ATOM     60  O   UNL     1      27.719  32.499  60.098  1.00  0.00    -0.269 OA
ATOM     61  N   UNL     1      26.310  32.048  59.197  1.00  0.00    -0.322 N 
ATOM     62  H   UNL     1      25.811  31.685  59.126  1.00  0.00     0.170 HD
BRANCH  61  63
ATOM     63  C   UNL     1      26.508  32.763  58.528  1.00  0.00     0.045 A 
ATOM     64  C   UNL     1      27.376  32.758  58.032  1.00  0.00     0.040 A 
ATOM     65  C   UNL     1      25.838  33.485  58.354  1.00  0.00    -0.027 A 
ATOM     66  C   UNL     1      27.575  33.474  57.363  1.00  0.00     0.042 A 
ATOM     67  C   UNL     1      26.036  34.201  57.685  1.00  0.00     0.006 A 
ATOM     68  C   UNL     1      24.969  33.490  58.850  1.00  0.00     0.046 C 
ATOM     69  C   UNL     1      26.905  34.195  57.189  1.00  0.00     0.014 A 
BRANCH  66  70
ATOM     70  C   UNL     1      28.443  33.468  56.867  1.00  0.00     0.255 C 
ATOM     71  O   UNL     1      29.207  34.029  57.189  1.00  0.00    -0.269 OA
ATOM     72  N   UNL     1      28.548  32.902  56.050  1.00  0.00    -0.321 N 
ATOM     73  H   UNL     1      27.963  32.703  56.112  1.00  0.00     0.170 HD
BRANCH  72  74
ATOM     74  C   UNL     1      29.417  32.895  55.554  1.00  0.00     0.050 A 
ATOM     75  C   UNL     1      29.426  32.827  54.515  1.00  0.00     0.028 A 
ATOM     76  C   UNL     1      30.317  32.957  56.073  1.00  0.00     0.028 A 
ATOM     77  C   UNL     1      30.289  32.819  54.009  1.00  0.00     0.008 A 
ATOM     78  C   UNL     1      28.558  32.768  54.023  1.00  0.00     0.105 A 
ATOM     79  C   UNL     1      31.216  32.949  55.547  1.00  0.00     0.025 A 
ATOM     80  C   UNL     1      31.202  32.880  54.508  1.00  0.00     0.102 A 
ATOM     81  C   UNL     1      30.283  32.753  53.011  1.00  0.00     0.033 A 
ATOM     82  C   UNL     1      28.552  32.702  53.025  1.00  0.00     0.046 A 
ATOM     83  C   UNL     1      29.414  32.694  52.519  1.00  0.00     0.096 A 
BRANCH  78  84
ATOM     84  S   UNL     1      27.558  32.738  54.030  1.00  0.00     0.295 S 
ATOM     85  O   UNL     1      26.558  32.709  54.038  1.00  0.00    -0.194 OA
ATOM     86  O   UNL     1      27.589  31.759  54.231  1.00  0.00    -0.194 OA
BRANCH  84  87
ATOM     87  O   UNL     1      27.527  33.718  53.830  1.00  0.00    -0.282 OA
ATOM     88  H   UNL     1      27.679  33.924  53.265  1.00  0.00     0.234 HD
ENDBRANCH  84  87
ENDBRANCH  78  84
BRANCH  80  89
ATOM     89  S   UNL     1      32.059  32.872  53.992  1.00  0.00     0.295 S 
ATOM     90  O   UNL     1      32.163  31.895  54.180  1.00  0.00    -0.194 OA
ATOM     91  O   UNL     1      31.954  33.848  53.805  1.00  0.00    -0.194 OA
BRANCH  89  92
ATOM     92  O   UNL     1      32.916  32.864  53.477  1.00  0.00    -0.282 OA
ATOM     93  H   UNL     1      33.396  33.207  53.670  1.00  0.00     0.234 HD
ENDBRANCH  89  92
ENDBRANCH  80  89
BRANCH  83  94
ATOM     94  S   UNL     1      29.409  32.628  51.521  1.00  0.00     0.294 S 
ATOM     95  O   UNL     1      29.161  33.595  51.459  1.00  0.00    -0.194 OA
ATOM     96  O   UNL     1      29.656  31.662  51.584  1.00  0.00    -0.194 OA
BRANCH  94  97
ATOM     97  O   UNL     1      29.403  32.562  50.524  1.00  0.00    -0.282 OA
ATOM     98  H   UNL     1      29.309  33.070  50.180  1.00  0.00     0.234 HD
ENDBRANCH  94  97
ENDBRANCH  83  94
ENDBRANCH  72  74
ENDBRANCH  66  70
ENDBRANCH  61  63
ENDBRANCH  56  59
ENDBRANCH   3  53
TORSDOF 22
ENDMDL
