MODEL 1
REMARK VINA RESULT:   -11.510      0.000      0.000
REMARK INTER + INTRA:          18.284
REMARK INTER:                 -24.295
REMARK INTRA:                  42.579
REMARK UNBOUND:                42.579
REMARK SMILES Cc1ccc(C(=O)Nc2ccc(S(=O)(=O)O)c3cc(S(=O)(=O)O)cc(S(=O)(=O)O)c23)cc1NC(=O)c1cccc(NC(=O)Nc2cccc(C(=O)Nc3cc(C(=O)Nc4ccc(S(=O)(=O)O)c5cc(S(=O)(=O)O)cc(S(=O)(=O)O)c45)ccc3C)c2)c1
REMARK SMILES IDX 43 1 41 2 44 3 42 4 40 7 36 8 86 9 37 10 38 11 39 12 34 13
REMARK SMILES IDX 33 14 35 16 32 17 5 18 31 19 4 20 3 21 2 22 1 23 6 24 8 25
REMARK SMILES IDX 7 27 9 28 25 29 30 30 24 31 17 32 19 33 12 34 18 35 10 36
REMARK SMILES IDX 11 37 26 38 27 39 28 40 29 41 20 43 21 44 22 45 23 46 13 48
REMARK SMILES IDX 14 49 15 50 16 51 45 53 85 54 46 55 49 56 47 57 48 58 50 59
REMARK SMILES IDX 51 60 52 61 53 63 54 64 83 65 55 66 82 67 84 68 81 69 56 70
REMARK SMILES IDX 57 71 58 72 59 74 80 75 60 76 67 77 75 78 61 79 62 80 68 81
REMARK SMILES IDX 74 82 69 83 76 84 77 85 78 86 79 87 63 89 64 90 65 91 66 92
REMARK SMILES IDX 70 94 71 95 72 96 73 97
REMARK H PARENT 41 5 44 6 33 15 8 26 29 42 23 47 16 52 52 62 58 73 79 88 66 93
REMARK H PARENT 73 98
REMARK Flexibility Score: inf
ROOT
ATOM      1  O   UNL     1       8.642  13.345  -4.252  1.00  0.00    -0.248 OA
ATOM      2  N   UNL     1       7.648  13.293  -5.669  1.00  0.00    -0.308 N 
ATOM      3  N   UNL     1       8.666  11.947  -5.275  1.00  0.00    -0.308 N 
ATOM      4  C   UNL     1       8.319  12.862  -5.065  1.00  0.00     0.323 C 
ATOM      5  H   UNL     1       7.448  12.993  -6.174  1.00  0.00     0.171 HD
ATOM      6  H   UNL     1       8.465  11.648  -5.779  1.00  0.00     0.171 HD
ENDROOT
BRANCH   2   7
ATOM      7  C   UNL     1       7.302  14.207  -5.460  1.00  0.00     0.043 A 
ATOM      8  C   UNL     1       7.540  15.921  -5.380  1.00  0.00     0.042 A 
ATOM      9  C   UNL     1       7.887  15.007  -5.590  1.00  0.00     0.040 A 
ATOM     10  C   UNL     1       6.606  16.035  -5.040  1.00  0.00     0.014 A 
ATOM     11  C   UNL     1       6.021  15.235  -4.910  1.00  0.00     0.003 A 
ATOM     12  C   UNL     1       6.368  14.321  -5.120  1.00  0.00     0.026 A 
BRANCH   8  13
ATOM     13  C   UNL     1       8.126  16.720  -5.511  1.00  0.00     0.255 C 
ATOM     14  N   UNL     1       8.074  17.245  -6.360  1.00  0.00    -0.322 N 
ATOM     15  H   UNL     1       7.679  17.076  -6.806  1.00  0.00     0.170 HD
ATOM     16  O   UNL     1       8.764  16.994  -4.791  1.00  0.00    -0.269 OA
BRANCH  14  17
ATOM     17  C   UNL     1       8.661  18.044  -6.489  1.00  0.00     0.045 A 
ATOM     18  C   UNL     1      10.240  18.756  -6.531  1.00  0.00     0.042 A 
ATOM     19  C   UNL     1       9.653  17.956  -6.402  1.00  0.00     0.040 A 
ATOM     20  C   UNL     1       9.834  19.643  -6.749  1.00  0.00     0.014 A 
ATOM     21  C   UNL     1       8.842  19.732  -6.837  1.00  0.00     0.006 A 
ATOM     22  C   UNL     1       8.255  18.932  -6.707  1.00  0.00    -0.027 A 
ATOM     23  C   UNL     1       7.263  19.020  -6.795  1.00  0.00     0.046 C 
BRANCH  18  24
ATOM     24  C   UNL     1      11.232  18.667  -6.443  1.00  0.00     0.255 C 
ATOM     25  N   UNL     1      11.799  18.570  -7.261  1.00  0.00    -0.321 N 
ATOM     26  H   UNL     1      11.536  18.564  -7.822  1.00  0.00     0.170 HD
ATOM     27  O   UNL     1      11.656  18.677  -5.538  1.00  0.00    -0.269 OA
BRANCH  25  28
ATOM     28  C   UNL     1      12.792  18.482  -7.173  1.00  0.00     0.050 A 
ATOM     29  C   UNL     1      13.546  16.891  -7.141  1.00  0.00     0.105 A 
ATOM     30  C   UNL     1      13.644  17.887  -7.110  1.00  0.00     0.028 A 
ATOM     31  C   UNL     1      14.357  16.308  -7.081  1.00  0.00     0.046 A 
ATOM     32  C   UNL     1      14.552  18.297  -7.018  1.00  0.00     0.008 A 
ATOM     33  C   UNL     1      15.264  16.719  -6.990  1.00  0.00     0.096 A 
ATOM     34  C   UNL     1      14.668  19.332  -6.984  1.00  0.00     0.102 A 
ATOM     35  C   UNL     1      15.360  17.713  -6.958  1.00  0.00     0.033 A 
ATOM     36  C   UNL     1      12.885  19.518  -7.141  1.00  0.00     0.028 A 
ATOM     37  C   UNL     1      13.830  19.946  -7.046  1.00  0.00     0.025 A 
BRANCH  29  38
ATOM     38  S   UNL     1      12.966  16.080  -7.213  1.00  0.00     0.295 S 
ATOM     39  O   UNL     1      12.938  16.188  -8.207  1.00  0.00    -0.194 OA
ATOM     40  O   UNL     1      12.995  15.972  -6.219  1.00  0.00    -0.194 OA
BRANCH  38  41
ATOM     41  O   UNL     1      12.386  15.268  -7.284  1.00  0.00    -0.282 OA
ATOM     42  H   UNL     1      12.020  15.107  -6.810  1.00  0.00     0.234 HD
ENDBRANCH  38  41
ENDBRANCH  29  38
BRANCH  33  43
ATOM     43  S   UNL     1      16.072  16.135  -6.930  1.00  0.00     0.294 S 
ATOM     44  O   UNL     1      16.057  16.010  -7.922  1.00  0.00    -0.194 OA
ATOM     45  O   UNL     1      16.088  16.260  -5.938  1.00  0.00    -0.194 OA
BRANCH  43  46
ATOM     46  O   UNL     1      16.882  15.550  -6.869  1.00  0.00    -0.282 OA
ATOM     47  H   UNL     1      17.024  15.168  -7.335  1.00  0.00     0.234 HD
ENDBRANCH  43  46
ENDBRANCH  33  43
BRANCH  34  48
ATOM     48  S   UNL     1      15.580  19.732  -6.892  1.00  0.00     0.295 S 
ATOM     49  O   UNL     1      15.470  19.756  -5.898  1.00  0.00    -0.194 OA
ATOM     50  O   UNL     1      15.692  19.708  -7.885  1.00  0.00    -0.194 OA
BRANCH  48  51
ATOM     51  O   UNL     1      16.492  20.132  -6.799  1.00  0.00    -0.282 OA
ATOM     52  H   UNL     1      16.667  20.594  -7.172  1.00  0.00     0.234 HD
ENDBRANCH  48  51
ENDBRANCH  34  48
ENDBRANCH  25  28
ENDBRANCH  18  24
ENDBRANCH  14  17
ENDBRANCH   8  13
ENDBRANCH   2   7
BRANCH   3  53
ATOM     53  C   UNL     1       9.336  11.517  -4.671  1.00  0.00     0.043 A 
ATOM     54  C   UNL     1      10.265  11.882  -4.613  1.00  0.00     0.040 A 
ATOM     55  C   UNL     1       9.077  10.721  -4.124  1.00  0.00     0.026 A 
ATOM     56  C   UNL     1      10.935  11.450  -4.009  1.00  0.00     0.042 A 
ATOM     57  C   UNL     1       9.747  10.289  -3.519  1.00  0.00     0.003 A 
ATOM     58  C   UNL     1      10.676  10.654  -3.462  1.00  0.00     0.014 A 
BRANCH  56  59
ATOM     59  C   UNL     1      11.864  11.815  -3.951  1.00  0.00     0.255 C 
ATOM     60  O   UNL     1      12.358  11.792  -3.082  1.00  0.00    -0.269 OA
ATOM     61  N   UNL     1      12.301  12.203  -4.763  1.00  0.00    -0.322 N 
ATOM     62  H   UNL     1      11.995  12.218  -5.303  1.00  0.00     0.170 HD
BRANCH  61  63
ATOM     63  C   UNL     1      13.230  12.568  -4.706  1.00  0.00     0.045 A 
ATOM     64  C   UNL     1      13.432  13.330  -4.090  1.00  0.00     0.040 A 
ATOM     65  C   UNL     1      13.959  12.171  -5.264  1.00  0.00    -0.027 A 
ATOM     66  C   UNL     1      14.361  13.695  -4.033  1.00  0.00     0.042 A 
ATOM     67  C   UNL     1      14.888  12.536  -5.207  1.00  0.00     0.006 A 
ATOM     68  C   UNL     1      13.757  11.409  -5.880  1.00  0.00     0.046 C 
ATOM     69  C   UNL     1      15.088  13.298  -4.591  1.00  0.00     0.014 A 
BRANCH  66  70
ATOM     70  C   UNL     1      14.561  14.457  -3.417  1.00  0.00     0.255 C 
ATOM     71  O   UNL     1      15.434  14.490  -2.930  1.00  0.00    -0.269 OA
ATOM     72  N   UNL     1      13.889  15.185  -3.288  1.00  0.00    -0.321 N 
ATOM     73  H   UNL     1      13.504  14.900  -3.683  1.00  0.00     0.170 HD
BRANCH  72  74
ATOM     74  C   UNL     1      14.089  15.948  -2.672  1.00  0.00     0.050 A 
ATOM     75  C   UNL     1      13.315  16.534  -2.296  1.00  0.00     0.028 A 
ATOM     76  C   UNL     1      15.072  16.160  -2.403  1.00  0.00     0.028 A 
ATOM     77  C   UNL     1      13.504  17.299  -1.680  1.00  0.00     0.008 A 
ATOM     78  C   UNL     1      12.373  16.325  -2.559  1.00  0.00     0.105 A 
ATOM     79  C   UNL     1      15.269  16.956  -1.761  1.00  0.00     0.025 A 
ATOM     80  C   UNL     1      14.479  17.529  -1.397  1.00  0.00     0.102 A 
ATOM     81  C   UNL     1      12.751  17.854  -1.326  1.00  0.00     0.033 A 
ATOM     82  C   UNL     1      11.620  16.880  -2.205  1.00  0.00     0.046 A 
ATOM     83  C   UNL     1      11.809  17.644  -1.589  1.00  0.00     0.096 A 
BRANCH  78  84
ATOM     84  S   UNL     1      11.720  15.762  -3.066  1.00  0.00     0.295 S 
ATOM     85  O   UNL     1      11.067  15.200  -3.574  1.00  0.00    -0.194 OA
ATOM     86  O   UNL     1      11.658  15.134  -2.291  1.00  0.00    -0.194 OA
BRANCH  84  87
ATOM     87  O   UNL     1      11.782  16.391  -3.842  1.00  0.00    -0.282 OA
ATOM     88  H   UNL     1      11.683  16.183  -4.418  1.00  0.00     0.234 HD
ENDBRANCH  84  87
ENDBRANCH  78  84
BRANCH  80  89
ATOM     89  S   UNL     1      14.658  18.296  -0.780  1.00  0.00     0.295 S 
ATOM     90  O   UNL     1      14.723  18.913  -1.565  1.00  0.00    -0.194 OA
ATOM     91  O   UNL     1      14.593  17.679   0.004  1.00  0.00    -0.194 OA
BRANCH  89  92
ATOM     92  O   UNL     1      14.836  19.062  -0.163  1.00  0.00    -0.282 OA
ATOM     93  H   UNL     1      14.364  19.408   0.046  1.00  0.00     0.234 HD
ENDBRANCH  89  92
ENDBRANCH  80  89
BRANCH  83  94
ATOM     94  S   UNL     1      11.056  18.199  -1.235  1.00  0.00     0.294 S 
ATOM     95  O   UNL     1      11.044  18.725  -2.086  1.00  0.00    -0.194 OA
ATOM     96  O   UNL     1      11.068  17.673  -0.385  1.00  0.00    -0.194 OA
BRANCH  94  97
ATOM     97  O   UNL     1      10.303  18.754  -0.882  1.00  0.00    -0.282 OA
ATOM     98  H   UNL     1      10.372  19.068  -0.351  1.00  0.00     0.234 HD
ENDBRANCH  94  97
ENDBRANCH  83  94
ENDBRANCH  72  74
ENDBRANCH  66  70
ENDBRANCH  61  63
ENDBRANCH  56  59
ENDBRANCH   3  53
TORSDOF 22
ENDMDL
MODEL 2
REMARK VINA RESULT:   -11.480      2.454      6.065
REMARK INTER + INTRA:          18.348
REMARK INTER:                 -25.150
REMARK INTRA:                  43.498
REMARK UNBOUND:                42.579
REMARK SMILES Cc1ccc(C(=O)Nc2ccc(S(=O)(=O)O)c3cc(S(=O)(=O)O)cc(S(=O)(=O)O)c23)cc1NC(=O)c1cccc(NC(=O)Nc2cccc(C(=O)Nc3cc(C(=O)Nc4ccc(S(=O)(=O)O)c5cc(S(=O)(=O)O)cc(S(=O)(=O)O)c45)ccc3C)c2)c1
REMARK SMILES IDX 43 1 41 2 44 3 42 4 40 7 36 8 86 9 37 10 38 11 39 12 34 13
REMARK SMILES IDX 33 14 35 16 32 17 5 18 31 19 4 20 3 21 2 22 1 23 6 24 8 25
REMARK SMILES IDX 7 27 9 28 25 29 30 30 24 31 17 32 19 33 12 34 18 35 10 36
REMARK SMILES IDX 11 37 26 38 27 39 28 40 29 41 20 43 21 44 22 45 23 46 13 48
REMARK SMILES IDX 14 49 15 50 16 51 45 53 85 54 46 55 49 56 47 57 48 58 50 59
REMARK SMILES IDX 51 60 52 61 53 63 54 64 83 65 55 66 82 67 84 68 81 69 56 70
REMARK SMILES IDX 57 71 58 72 59 74 80 75 60 76 67 77 75 78 61 79 62 80 68 81
REMARK SMILES IDX 74 82 69 83 76 84 77 85 78 86 79 87 63 89 64 90 65 91 66 92
REMARK SMILES IDX 70 94 71 95 72 96 73 97
REMARK H PARENT 41 5 44 6 33 15 8 26 29 42 23 47 16 52 52 62 58 73 79 88 66 93
REMARK H PARENT 73 98
REMARK Flexibility Score: inf
ROOT
ATOM      1  O   UNL     1      12.007  10.991  -4.097  1.00  0.00    -0.248 OA
ATOM      2  N   UNL     1      11.882  10.518  -2.436  1.00  0.00    -0.308 N 
ATOM      3  N   UNL     1      13.276  11.387  -2.987  1.00  0.00    -0.308 N 
ATOM      4  C   UNL     1      12.389  10.966  -3.173  1.00  0.00     0.323 C 
ATOM      5  H   UNL     1      12.119  10.503  -1.862  1.00  0.00     0.171 HD
ATOM      6  H   UNL     1      13.513  11.372  -2.414  1.00  0.00     0.171 HD
ENDROOT
BRANCH   2   7
ATOM      7  C   UNL     1      10.996  10.097  -2.621  1.00  0.00     0.043 A 
ATOM      8  C   UNL     1       9.290  10.244  -2.890  1.00  0.00     0.042 A 
ATOM      9  C   UNL     1      10.178  10.666  -2.704  1.00  0.00     0.040 A 
ATOM     10  C   UNL     1       9.221   9.252  -2.994  1.00  0.00     0.014 A 
ATOM     11  C   UNL     1      10.039   8.682  -2.911  1.00  0.00     0.003 A 
ATOM     12  C   UNL     1      10.926   9.105  -2.725  1.00  0.00     0.026 A 
BRANCH   8  13
ATOM     13  C   UNL     1       8.474  10.814  -2.973  1.00  0.00     0.255 C 
ATOM     14  N   UNL     1       7.900  10.985  -2.172  1.00  0.00    -0.322 N 
ATOM     15  H   UNL     1       8.050  10.738  -1.624  1.00  0.00     0.170 HD
ATOM     16  O   UNL     1       8.231  11.213  -3.857  1.00  0.00    -0.269 OA
BRANCH  14  17
ATOM     17  C   UNL     1       7.083  11.556  -2.256  1.00  0.00     0.045 A 
ATOM     18  C   UNL     1       6.333  13.041  -2.736  1.00  0.00     0.042 A 
ATOM     19  C   UNL     1       7.150  12.471  -2.653  1.00  0.00     0.040 A 
ATOM     20  C   UNL     1       5.448  12.696  -2.423  1.00  0.00     0.014 A 
ATOM     21  C   UNL     1       5.381  11.781  -2.025  1.00  0.00     0.006 A 
ATOM     22  C   UNL     1       6.198  11.210  -1.942  1.00  0.00    -0.027 A 
ATOM     23  C   UNL     1       6.131  10.296  -1.545  1.00  0.00     0.046 C 
BRANCH  18  24
ATOM     24  C   UNL     1       6.400  13.957  -3.134  1.00  0.00     0.255 C 
ATOM     25  N   UNL     1       6.621  14.065  -4.103  1.00  0.00    -0.321 N 
ATOM     26  H   UNL     1       6.717  13.566  -4.457  1.00  0.00     0.170 HD
ATOM     27  O   UNL     1       6.247  14.762  -2.562  1.00  0.00    -0.269 OA
BRANCH  25  28
ATOM     28  C   UNL     1       6.689  14.981  -4.500  1.00  0.00     0.050 A 
ATOM     29  C   UNL     1       8.259  15.751  -4.705  1.00  0.00     0.105 A 
ATOM     30  C   UNL     1       7.264  15.793  -4.809  1.00  0.00     0.028 A 
ATOM     31  C   UNL     1       8.823  16.523  -4.997  1.00  0.00     0.046 A 
ATOM     32  C   UNL     1       6.836  16.606  -5.203  1.00  0.00     0.008 A 
ATOM     33  C   UNL     1       8.395  17.336  -5.391  1.00  0.00     0.096 A 
ATOM     34  C   UNL     1       5.802  16.663  -5.317  1.00  0.00     0.102 A 
ATOM     35  C   UNL     1       7.402  17.376  -5.494  1.00  0.00     0.033 A 
ATOM     36  C   UNL     1       5.653  15.017  -4.605  1.00  0.00     0.028 A 
ATOM     37  C   UNL     1       5.207  15.863  -5.015  1.00  0.00     0.025 A 
BRANCH  29  38
ATOM     38  S   UNL     1       9.080  15.258  -4.418  1.00  0.00     0.295 S 
ATOM     39  O   UNL     1       9.123  14.810  -5.311  1.00  0.00    -0.194 OA
ATOM     40  O   UNL     1       9.036  15.705  -3.525  1.00  0.00    -0.194 OA
BRANCH  38  41
ATOM     41  O   UNL     1       9.901  14.765  -4.130  1.00  0.00    -0.282 OA
ATOM     42  H   UNL     1      10.242  14.979  -3.659  1.00  0.00     0.234 HD
ENDBRANCH  38  41
ENDBRANCH  29  38
BRANCH  33  43
ATOM     43  S   UNL     1       8.961  18.107  -5.682  1.00  0.00     0.294 S 
ATOM     44  O   UNL     1       9.033  18.414  -4.733  1.00  0.00    -0.194 OA
ATOM     45  O   UNL     1       8.889  17.800  -6.631  1.00  0.00    -0.194 OA
BRANCH  43  46
ATOM     46  O   UNL     1       9.527  18.878  -5.974  1.00  0.00    -0.282 OA
ATOM     47  H   UNL     1       9.905  19.156  -5.570  1.00  0.00     0.234 HD
ENDBRANCH  43  46
ENDBRANCH  33  43
BRANCH  34  48
ATOM     48  S   UNL     1       5.385  17.481  -5.712  1.00  0.00     0.295 S 
ATOM     49  O   UNL     1       5.275  17.868  -4.797  1.00  0.00    -0.194 OA
ATOM     50  O   UNL     1       5.494  17.094  -6.628  1.00  0.00    -0.194 OA
BRANCH  48  51
ATOM     51  O   UNL     1       4.967  18.299  -6.107  1.00  0.00    -0.282 OA
ATOM     52  H   UNL     1       4.645  18.259  -6.635  1.00  0.00     0.234 HD
ENDBRANCH  48  51
ENDBRANCH  34  48
ENDBRANCH  25  28
ENDBRANCH  18  24
ENDBRANCH  14  17
ENDBRANCH   8  13
ENDBRANCH   2   7
BRANCH   3  53
ATOM     53  C   UNL     1      13.782  11.834  -3.725  1.00  0.00     0.043 A 
ATOM     54  C   UNL     1      13.557  12.772  -3.989  1.00  0.00     0.040 A 
ATOM     55  C   UNL     1      14.513  11.343  -4.199  1.00  0.00     0.026 A 
ATOM     56  C   UNL     1      14.063  13.218  -4.727  1.00  0.00     0.042 A 
ATOM     57  C   UNL     1      15.019  11.789  -4.937  1.00  0.00     0.003 A 
ATOM     58  C   UNL     1      14.794  12.726  -5.201  1.00  0.00     0.014 A 
BRANCH  56  59
ATOM     59  C   UNL     1      13.839  14.156  -4.991  1.00  0.00     0.255 C 
ATOM     60  O   UNL     1      14.500  14.891  -4.838  1.00  0.00    -0.269 OA
ATOM     61  N   UNL     1      12.953  14.360  -5.409  1.00  0.00    -0.322 N 
ATOM     62  H   UNL     1      12.543  13.904  -5.504  1.00  0.00     0.170 HD
BRANCH  61  63
ATOM     63  C   UNL     1      12.728  15.298  -5.673  1.00  0.00     0.045 A 
ATOM     64  C   UNL     1      12.758  16.030  -4.993  1.00  0.00     0.040 A 
ATOM     65  C   UNL     1      12.475  15.504  -6.619  1.00  0.00    -0.027 A 
ATOM     66  C   UNL     1      12.533  16.968  -5.257  1.00  0.00     0.042 A 
ATOM     67  C   UNL     1      12.250  16.441  -6.883  1.00  0.00     0.006 A 
ATOM     68  C   UNL     1      12.446  14.771  -7.299  1.00  0.00     0.046 C 
ATOM     69  C   UNL     1      12.279  17.173  -6.202  1.00  0.00     0.014 A 
BRANCH  66  70
ATOM     70  C   UNL     1      12.562  17.700  -4.576  1.00  0.00     0.255 C 
ATOM     71  O   UNL     1      13.003  18.570  -4.796  1.00  0.00    -0.269 OA
ATOM     72  N   UNL     1      12.151  17.561  -3.675  1.00  0.00    -0.321 N 
ATOM     73  H   UNL     1      11.982  16.986  -3.841  1.00  0.00     0.170 HD
BRANCH  72  74
ATOM     74  C   UNL     1      12.179  18.292  -2.994  1.00  0.00     0.050 A 
ATOM     75  C   UNL     1      12.228  18.061  -1.979  1.00  0.00     0.028 A 
ATOM     76  C   UNL     1      12.161  19.289  -3.294  1.00  0.00     0.028 A 
ATOM     77  C   UNL     1      12.257  18.785  -1.290  1.00  0.00     0.008 A 
ATOM     78  C   UNL     1      12.245  17.102  -1.699  1.00  0.00     0.105 A 
ATOM     79  C   UNL     1      12.192  20.042  -2.576  1.00  0.00     0.025 A 
ATOM     80  C   UNL     1      12.240  19.789  -1.567  1.00  0.00     0.102 A 
ATOM     81  C   UNL     1      12.304  18.549  -0.319  1.00  0.00     0.033 A 
ATOM     82  C   UNL     1      12.292  16.866  -0.728  1.00  0.00     0.046 A 
ATOM     83  C   UNL     1      12.321  17.589  -0.038  1.00  0.00     0.096 A 
BRANCH  78  84
ATOM     84  S   UNL     1      12.238  16.130  -1.934  1.00  0.00     0.295 S 
ATOM     85  O   UNL     1      12.232  15.158  -2.170  1.00  0.00    -0.194 OA
ATOM     86  O   UNL     1      13.238  16.127  -1.951  1.00  0.00    -0.194 OA
BRANCH  84  87
ATOM     87  O   UNL     1      11.239  16.133  -1.918  1.00  0.00    -0.282 OA
ATOM     88  H   UNL     1      10.921  15.779  -2.316  1.00  0.00     0.234 HD
ENDBRANCH  84  87
ENDBRANCH  78  84
BRANCH  80  89
ATOM     89  S   UNL     1      12.270  20.505  -0.869  1.00  0.00     0.295 S 
ATOM     90  O   UNL     1      13.248  20.629  -1.037  1.00  0.00    -0.194 OA
ATOM     91  O   UNL     1      11.292  20.381  -0.702  1.00  0.00    -0.194 OA
BRANCH  89  92
ATOM     92  O   UNL     1      12.298  21.221  -0.172  1.00  0.00    -0.282 OA
ATOM     93  H   UNL     1      12.349  21.067   0.427  1.00  0.00     0.234 HD
ENDBRANCH  89  92
ENDBRANCH  80  89
BRANCH  83  94
ATOM     94  S   UNL     1      12.367  17.353   0.932  1.00  0.00     0.294 S 
ATOM     95  O   UNL     1      11.401  17.097   0.916  1.00  0.00    -0.194 OA
ATOM     96  O   UNL     1      13.334  17.610   0.948  1.00  0.00    -0.194 OA
BRANCH  94  97
ATOM     97  O   UNL     1      12.414  17.117   1.903  1.00  0.00    -0.282 OA
ATOM     98  H   UNL     1      12.900  17.298   2.243  1.00  0.00     0.234 HD
ENDBRANCH  94  97
ENDBRANCH  83  94
ENDBRANCH  72  74
ENDBRANCH  66  70
ENDBRANCH  61  63
ENDBRANCH  56  59
ENDBRANCH   3  53
TORSDOF 22
ENDMDL
MODEL 3
REMARK VINA RESULT:   -11.460      2.361      4.825
REMARK INTER + INTRA:          18.390
REMARK INTER:                 -25.421
REMARK INTRA:                  43.811
REMARK UNBOUND:                42.579
REMARK SMILES Cc1ccc(C(=O)Nc2ccc(S(=O)(=O)O)c3cc(S(=O)(=O)O)cc(S(=O)(=O)O)c23)cc1NC(=O)c1cccc(NC(=O)Nc2cccc(C(=O)Nc3cc(C(=O)Nc4ccc(S(=O)(=O)O)c5cc(S(=O)(=O)O)cc(S(=O)(=O)O)c45)ccc3C)c2)c1
REMARK SMILES IDX 43 1 41 2 44 3 42 4 40 7 36 8 86 9 37 10 38 11 39 12 34 13
REMARK SMILES IDX 33 14 35 16 32 17 5 18 31 19 4 20 3 21 2 22 1 23 6 24 8 25
REMARK SMILES IDX 7 27 9 28 25 29 30 30 24 31 17 32 19 33 12 34 18 35 10 36
REMARK SMILES IDX 11 37 26 38 27 39 28 40 29 41 20 43 21 44 22 45 23 46 13 48
REMARK SMILES IDX 14 49 15 50 16 51 45 53 85 54 46 55 49 56 47 57 48 58 50 59
REMARK SMILES IDX 51 60 52 61 53 63 54 64 83 65 55 66 82 67 84 68 81 69 56 70
REMARK SMILES IDX 57 71 58 72 59 74 80 75 60 76 67 77 75 78 61 79 62 80 68 81
REMARK SMILES IDX 74 82 69 83 76 84 77 85 78 86 79 87 63 89 64 90 65 91 66 92
REMARK SMILES IDX 70 94 71 95 72 96 73 97
REMARK H PARENT 41 5 44 6 33 15 8 26 29 42 23 47 16 52 52 62 58 73 79 88 66 93
REMARK H PARENT 73 98
REMARK Flexibility Score: inf
ROOT
ATOM      1  O   UNL     1       7.276  11.205  -1.962  1.00  0.00    -0.248 OA
ATOM      2  N   UNL     1       6.170  11.432  -3.275  1.00  0.00    -0.308 N 
ATOM      3  N   UNL     1       6.807   9.856  -2.941  1.00  0.00    -0.308 N 
ATOM      4  C   UNL     1       6.751  10.831  -2.726  1.00  0.00     0.323 C 
ATOM      5  H   UNL     1       5.845  11.199  -3.750  1.00  0.00     0.171 HD
ATOM      6  H   UNL     1       6.482   9.624  -3.415  1.00  0.00     0.171 HD
ENDROOT
BRANCH   2   7
ATOM      7  C   UNL     1       6.114  12.406  -3.061  1.00  0.00     0.043 A 
ATOM      8  C   UNL     1       6.670  14.030  -3.298  1.00  0.00     0.042 A 
ATOM      9  C   UNL     1       6.727  13.055  -3.513  1.00  0.00     0.040 A 
ATOM     10  C   UNL     1       6.000  14.357  -2.631  1.00  0.00     0.014 A 
ATOM     11  C   UNL     1       5.387  13.708  -2.180  1.00  0.00     0.003 A 
ATOM     12  C   UNL     1       5.444  12.733  -2.394  1.00  0.00     0.026 A 
BRANCH   8  13
ATOM     13  C   UNL     1       7.283  14.677  -3.750  1.00  0.00     0.255 C 
ATOM     14  N   UNL     1       6.945  15.247  -4.499  1.00  0.00    -0.322 N 
ATOM     15  H   UNL     1       6.355  15.199  -4.684  1.00  0.00     0.170 HD
ATOM     16  O   UNL     1       8.234  14.754  -3.453  1.00  0.00    -0.269 OA
BRANCH  14  17
ATOM     17  C   UNL     1       7.559  15.894  -4.951  1.00  0.00     0.045 A 
ATOM     18  C   UNL     1       8.912  16.973  -4.887  1.00  0.00     0.042 A 
ATOM     19  C   UNL     1       8.298  16.326  -4.435  1.00  0.00     0.040 A 
ATOM     20  C   UNL     1       8.786  17.188  -5.855  1.00  0.00     0.014 A 
ATOM     21  C   UNL     1       8.047  16.756  -6.371  1.00  0.00     0.006 A 
ATOM     22  C   UNL     1       7.433  16.109  -5.920  1.00  0.00    -0.027 A 
ATOM     23  C   UNL     1       6.694  15.677  -6.436  1.00  0.00     0.046 C 
BRANCH  18  24
ATOM     24  C   UNL     1       9.651  17.405  -4.370  1.00  0.00     0.255 C 
ATOM     25  N   UNL     1      10.477  16.886  -4.150  1.00  0.00    -0.321 N 
ATOM     26  H   UNL     1      10.530  16.296  -4.333  1.00  0.00     0.170 HD
ATOM     27  O   UNL     1       9.565  18.357  -4.074  1.00  0.00    -0.269 OA
BRANCH  25  28
ATOM     28  C   UNL     1      11.216  17.318  -3.633  1.00  0.00     0.050 A 
ATOM     29  C   UNL     1      11.256  17.214  -1.876  1.00  0.00     0.105 A 
ATOM     30  C   UNL     1      11.674  17.542  -2.724  1.00  0.00     0.028 A 
ATOM     31  C   UNL     1      11.684  17.422  -0.996  1.00  0.00     0.046 A 
ATOM     32  C   UNL     1      12.518  18.076  -2.692  1.00  0.00     0.008 A 
ATOM     33  C   UNL     1      12.529  17.957  -0.965  1.00  0.00     0.096 A 
ATOM     34  C   UNL     1      12.964  18.423  -3.567  1.00  0.00     0.102 A 
ATOM     35  C   UNL     1      12.945  18.283  -1.813  1.00  0.00     0.033 A 
ATOM     36  C   UNL     1      11.645  17.655  -4.521  1.00  0.00     0.028 A 
ATOM     37  C   UNL     1      12.524  18.211  -4.487  1.00  0.00     0.025 A 
BRANCH  29  38
ATOM     38  S   UNL     1      10.527  16.717  -1.405  1.00  0.00     0.295 S 
ATOM     39  O   UNL     1      10.055  17.581  -1.225  1.00  0.00    -0.194 OA
ATOM     40  O   UNL     1      11.000  15.854  -1.586  1.00  0.00    -0.194 OA
BRANCH  38  41
ATOM     41  O   UNL     1       9.799  16.220  -0.934  1.00  0.00    -0.282 OA
ATOM     42  H   UNL     1       9.652  15.644  -1.111  1.00  0.00     0.234 HD
ENDBRANCH  38  41
ENDBRANCH  29  38
BRANCH  33  43
ATOM     43  S   UNL     1      12.956  18.163  -0.085  1.00  0.00     0.294 S 
ATOM     44  O   UNL     1      12.422  19.007  -0.023  1.00  0.00    -0.194 OA
ATOM     45  O   UNL     1      13.489  17.320  -0.146  1.00  0.00    -0.194 OA
BRANCH  43  46
ATOM     46  O   UNL     1      13.383  18.370   0.795  1.00  0.00    -0.282 OA
ATOM     47  H   UNL     1      13.669  17.922   1.114  1.00  0.00     0.234 HD
ENDBRANCH  43  46
ENDBRANCH  33  43
BRANCH  34  48
ATOM     48  S   UNL     1      13.809  18.957  -3.523  1.00  0.00     0.295 S 
ATOM     49  O   UNL     1      14.344  18.115  -3.587  1.00  0.00    -0.194 OA
ATOM     50  O   UNL     1      13.274  19.800  -3.460  1.00  0.00    -0.194 OA
BRANCH  48  51
ATOM     51  O   UNL     1      14.654  19.490  -3.480  1.00  0.00    -0.282 OA
ATOM     52  H   UNL     1      14.631  20.109  -3.483  1.00  0.00     0.234 HD
ENDBRANCH  48  51
ENDBRANCH  34  48
ENDBRANCH  25  28
ENDBRANCH  18  24
ENDBRANCH  14  17
ENDBRANCH   8  13
ENDBRANCH   2   7
BRANCH   3  53
ATOM     53  C   UNL     1       7.388   9.256  -2.391  1.00  0.00     0.043 A 
ATOM     54  C   UNL     1       8.377   9.404  -2.363  1.00  0.00     0.040 A 
ATOM     55  C   UNL     1       6.980   8.507  -1.869  1.00  0.00     0.026 A 
ATOM     56  C   UNL     1       8.957   8.804  -1.813  1.00  0.00     0.042 A 
ATOM     57  C   UNL     1       7.560   7.906  -1.318  1.00  0.00     0.003 A 
ATOM     58  C   UNL     1       8.549   8.055  -1.291  1.00  0.00     0.014 A 
BRANCH  56  59
ATOM     59  C   UNL     1       9.945   8.952  -1.786  1.00  0.00     0.255 C 
ATOM     60  O   UNL     1      10.310   9.834  -1.486  1.00  0.00    -0.269 OA
ATOM     61  N   UNL     1      10.569   8.219  -2.057  1.00  0.00    -0.322 N 
ATOM     62  H   UNL     1      10.343   7.672  -2.243  1.00  0.00     0.170 HD
BRANCH  61  63
ATOM     63  C   UNL     1      11.558   8.368  -2.029  1.00  0.00     0.045 A 
ATOM     64  C   UNL     1      11.932   9.278  -2.206  1.00  0.00     0.040 A 
ATOM     65  C   UNL     1      12.172   7.605  -1.826  1.00  0.00    -0.027 A 
ATOM     66  C   UNL     1      12.921   9.427  -2.178  1.00  0.00     0.042 A 
ATOM     67  C   UNL     1      13.161   7.754  -1.798  1.00  0.00     0.006 A 
ATOM     68  C   UNL     1      11.798   6.695  -1.650  1.00  0.00     0.046 C 
ATOM     69  C   UNL     1      13.534   8.665  -1.974  1.00  0.00     0.014 A 
BRANCH  66  70
ATOM     70  C   UNL     1      13.294  10.337  -2.354  1.00  0.00     0.255 C 
ATOM     71  O   UNL     1      13.924  10.755  -1.699  1.00  0.00    -0.269 OA
ATOM     72  N   UNL     1      13.038  10.830  -3.185  1.00  0.00    -0.321 N 
ATOM     73  H   UNL     1      12.679  10.354  -3.357  1.00  0.00     0.170 HD
BRANCH  72  74
ATOM     74  C   UNL     1      13.412  11.741  -3.363  1.00  0.00     0.050 A 
ATOM     75  C   UNL     1      12.944  12.376  -4.043  1.00  0.00     0.028 A 
ATOM     76  C   UNL     1      14.271  12.060  -2.868  1.00  0.00     0.028 A 
ATOM     77  C   UNL     1      13.309  13.288  -4.227  1.00  0.00     0.008 A 
ATOM     78  C   UNL     1      12.120  12.062  -4.514  1.00  0.00     0.105 A 
ATOM     79  C   UNL     1      14.651  13.010  -3.059  1.00  0.00     0.025 A 
ATOM     80  C   UNL     1      14.167  13.629  -3.744  1.00  0.00     0.102 A 
ATOM     81  C   UNL     1      12.850  13.888  -4.882  1.00  0.00     0.033 A 
ATOM     82  C   UNL     1      11.660  12.662  -5.170  1.00  0.00     0.046 A 
ATOM     83  C   UNL     1      12.025  13.574  -5.354  1.00  0.00     0.096 A 
BRANCH  78  84
ATOM     84  S   UNL     1      11.433  11.355  -4.680  1.00  0.00     0.295 S 
ATOM     85  O   UNL     1      10.746  10.647  -4.846  1.00  0.00    -0.194 OA
ATOM     86  O   UNL     1      12.003  10.972  -5.407  1.00  0.00    -0.194 OA
BRANCH  84  87
ATOM     87  O   UNL     1      10.863  11.737  -3.953  1.00  0.00    -0.282 OA
ATOM     88  H   UNL     1      10.327  11.464  -3.802  1.00  0.00     0.234 HD
ENDBRANCH  84  87
ENDBRANCH  78  84
BRANCH  80  89
ATOM     89  S   UNL     1      14.524  14.543  -3.935  1.00  0.00     0.295 S 
ATOM     90  O   UNL     1      15.090  14.170  -4.670  1.00  0.00    -0.194 OA
ATOM     91  O   UNL     1      13.958  14.917  -3.200  1.00  0.00    -0.194 OA
BRANCH  89  92
ATOM     92  O   UNL     1      14.880  15.458  -4.126  1.00  0.00    -0.282 OA
ATOM     93  H   UNL     1      14.489  15.920  -4.264  1.00  0.00     0.234 HD
ENDBRANCH  89  92
ENDBRANCH  80  89
BRANCH  83  94
ATOM     94  S   UNL     1      11.566  14.174  -6.010  1.00  0.00     0.294 S 
ATOM     95  O   UNL     1      10.805  14.289  -5.371  1.00  0.00    -0.194 OA
ATOM     96  O   UNL     1      12.327  14.059  -6.648  1.00  0.00    -0.194 OA
BRANCH  94  97
ATOM     97  O   UNL     1      11.107  14.773  -6.665  1.00  0.00    -0.282 OA
ATOM     98  H   UNL     1      10.647  14.552  -7.018  1.00  0.00     0.234 HD
ENDBRANCH  94  97
ENDBRANCH  83  94
ENDBRANCH  72  74
ENDBRANCH  66  70
ENDBRANCH  61  63
ENDBRANCH  56  59
ENDBRANCH   3  53
TORSDOF 22
ENDMDL
MODEL 4
REMARK VINA RESULT:   -11.435      2.488      5.521
REMARK INTER + INTRA:          18.442
REMARK INTER:                 -27.388
REMARK INTRA:                  45.831
REMARK UNBOUND:                42.579
REMARK SMILES Cc1ccc(C(=O)Nc2ccc(S(=O)(=O)O)c3cc(S(=O)(=O)O)cc(S(=O)(=O)O)c23)cc1NC(=O)c1cccc(NC(=O)Nc2cccc(C(=O)Nc3cc(C(=O)Nc4ccc(S(=O)(=O)O)c5cc(S(=O)(=O)O)cc(S(=O)(=O)O)c45)ccc3C)c2)c1
REMARK SMILES IDX 43 1 41 2 44 3 42 4 40 7 36 8 86 9 37 10 38 11 39 12 34 13
REMARK SMILES IDX 33 14 35 16 32 17 5 18 31 19 4 20 3 21 2 22 1 23 6 24 8 25
REMARK SMILES IDX 7 27 9 28 25 29 30 30 24 31 17 32 19 33 12 34 18 35 10 36
REMARK SMILES IDX 11 37 26 38 27 39 28 40 29 41 20 43 21 44 22 45 23 46 13 48
REMARK SMILES IDX 14 49 15 50 16 51 45 53 85 54 46 55 49 56 47 57 48 58 50 59
REMARK SMILES IDX 51 60 52 61 53 63 54 64 83 65 55 66 82 67 84 68 81 69 56 70
REMARK SMILES IDX 57 71 58 72 59 74 80 75 60 76 67 77 75 78 61 79 62 80 68 81
REMARK SMILES IDX 74 82 69 83 76 84 77 85 78 86 79 87 63 89 64 90 65 91 66 92
REMARK SMILES IDX 70 94 71 95 72 96 73 97
REMARK H PARENT 41 5 44 6 33 15 8 26 29 42 23 47 16 52 52 62 58 73 79 88 66 93
REMARK H PARENT 73 98
REMARK Flexibility Score: inf
ROOT
ATOM      1  O   UNL     1       6.396  13.773  -3.371  1.00  0.00    -0.248 OA
ATOM      2  N   UNL     1       6.006  13.811  -5.058  1.00  0.00    -0.308 N 
ATOM      3  N   UNL     1       5.732  12.369  -4.138  1.00  0.00    -0.308 N 
ATOM      4  C   UNL     1       6.045  13.318  -4.189  1.00  0.00     0.323 C 
ATOM      5  H   UNL     1       5.789  13.528  -5.565  1.00  0.00     0.171 HD
ATOM      6  H   UNL     1       5.515  12.087  -4.645  1.00  0.00     0.171 HD
ENDROOT
BRANCH   2   7
ATOM      7  C   UNL     1       6.319  14.759  -5.109  1.00  0.00     0.043 A 
ATOM      8  C   UNL     1       7.610  15.913  -5.178  1.00  0.00     0.042 A 
ATOM      9  C   UNL     1       7.297  14.964  -5.126  1.00  0.00     0.040 A 
ATOM     10  C   UNL     1       6.943  16.657  -5.211  1.00  0.00     0.014 A 
ATOM     11  C   UNL     1       5.964  16.453  -5.194  1.00  0.00     0.003 A 
ATOM     12  C   UNL     1       5.652  15.504  -5.142  1.00  0.00     0.026 A 
BRANCH   8  13
ATOM     13  C   UNL     1       8.588  16.116  -5.195  1.00  0.00     0.255 C 
ATOM     14  N   UNL     1       8.980  16.623  -5.962  1.00  0.00    -0.322 N 
ATOM     15  H   UNL     1       8.616  16.812  -6.428  1.00  0.00     0.170 HD
ATOM     16  O   UNL     1       9.175  15.812  -4.445  1.00  0.00    -0.269 OA
BRANCH  14  17
ATOM     17  C   UNL     1       9.959  16.827  -5.979  1.00  0.00     0.045 A 
ATOM     18  C   UNL     1      11.378  17.437  -5.196  1.00  0.00     0.042 A 
ATOM     19  C   UNL     1      10.399  17.234  -5.180  1.00  0.00     0.040 A 
ATOM     20  C   UNL     1      11.917  17.232  -6.013  1.00  0.00     0.014 A 
ATOM     21  C   UNL     1      11.477  16.825  -6.814  1.00  0.00     0.006 A 
ATOM     22  C   UNL     1      10.498  16.622  -6.797  1.00  0.00    -0.027 A 
ATOM     23  C   UNL     1      10.057  16.214  -7.596  1.00  0.00     0.046 C 
BRANCH  18  24
ATOM     24  C   UNL     1      11.818  17.845  -4.396  1.00  0.00     0.255 C 
ATOM     25  N   UNL     1      11.399  17.750  -3.493  1.00  0.00    -0.321 N 
ATOM     26  H   UNL     1      10.867  17.440  -3.429  1.00  0.00     0.170 HD
ATOM     27  O   UNL     1      12.677  18.346  -4.499  1.00  0.00    -0.269 OA
BRANCH  25  28
ATOM     28  C   UNL     1      11.839  18.158  -2.693  1.00  0.00     0.050 A 
ATOM     29  C   UNL     1      12.882  17.188  -1.658  1.00  0.00     0.105 A 
ATOM     30  C   UNL     1      12.459  18.072  -1.860  1.00  0.00     0.028 A 
ATOM     31  C   UNL     1      13.479  17.092  -0.861  1.00  0.00     0.046 A 
ATOM     32  C   UNL     1      12.632  18.858  -1.266  1.00  0.00     0.008 A 
ATOM     33  C   UNL     1      13.653  17.877  -0.267  1.00  0.00     0.096 A 
ATOM     34  C   UNL     1      12.198  19.783  -1.464  1.00  0.00     0.102 A 
ATOM     35  C   UNL     1      13.229  18.760  -0.470  1.00  0.00     0.033 A 
ATOM     36  C   UNL     1      11.394  19.075  -2.910  1.00  0.00     0.028 A 
ATOM     37  C   UNL     1      11.575  19.892  -2.292  1.00  0.00     0.025 A 
BRANCH  29  38
ATOM     38  S   UNL     1      13.026  16.225  -1.884  1.00  0.00     0.295 S 
ATOM     39  O   UNL     1      12.180  15.987  -1.407  1.00  0.00    -0.194 OA
ATOM     40  O   UNL     1      13.872  16.464  -2.361  1.00  0.00    -0.194 OA
BRANCH  38  41
ATOM     41  O   UNL     1      13.170  15.262  -2.110  1.00  0.00    -0.282 OA
ATOM     42  H   UNL     1      13.029  14.822  -1.697  1.00  0.00     0.234 HD
ENDBRANCH  38  41
ENDBRANCH  29  38
BRANCH  33  43
ATOM     43  S   UNL     1      14.250  17.779   0.528  1.00  0.00     0.294 S 
ATOM     44  O   UNL     1      15.027  18.096  -0.015  1.00  0.00    -0.194 OA
ATOM     45  O   UNL     1      13.473  17.462   1.071  1.00  0.00    -0.194 OA
BRANCH  43  46
ATOM     46  O   UNL     1      14.847  17.681   1.325  1.00  0.00    -0.282 OA
ATOM     47  H   UNL     1      14.607  17.694   1.896  1.00  0.00     0.234 HD
ENDBRANCH  43  46
ENDBRANCH  33  43
BRANCH  34  48
ATOM     48  S   UNL     1      12.379  20.562  -0.863  1.00  0.00     0.295 S 
ATOM     49  O   UNL     1      11.596  20.306  -0.296  1.00  0.00    -0.194 OA
ATOM     50  O   UNL     1      13.162  20.819  -1.430  1.00  0.00    -0.194 OA
BRANCH  48  51
ATOM     51  O   UNL     1      12.559  21.341  -0.262  1.00  0.00    -0.282 OA
ATOM     52  H   UNL     1      12.683  21.897  -0.504  1.00  0.00     0.234 HD
ENDBRANCH  48  51
ENDBRANCH  34  48
ENDBRANCH  25  28
ENDBRANCH  18  24
ENDBRANCH  14  17
ENDBRANCH   8  13
ENDBRANCH   2   7
BRANCH   3  53
ATOM     53  C   UNL     1       5.771  11.876  -3.269  1.00  0.00     0.043 A 
ATOM     54  C   UNL     1       6.612  11.411  -2.994  1.00  0.00     0.040 A 
ATOM     55  C   UNL     1       4.967  11.849  -2.674  1.00  0.00     0.026 A 
ATOM     56  C   UNL     1       6.650  10.918  -2.125  1.00  0.00     0.042 A 
ATOM     57  C   UNL     1       5.005  11.356  -1.804  1.00  0.00     0.003 A 
ATOM     58  C   UNL     1       5.847  10.891  -1.530  1.00  0.00     0.014 A 
BRANCH  56  59
ATOM     59  C   UNL     1       7.491  10.453  -1.850  1.00  0.00     0.255 C 
ATOM     60  O   UNL     1       8.233  10.971  -1.423  1.00  0.00    -0.269 OA
ATOM     61  N   UNL     1       7.593   9.470  -2.003  1.00  0.00    -0.322 N 
ATOM     62  H   UNL     1       7.133   9.148  -2.268  1.00  0.00     0.170 HD
BRANCH  61  63
ATOM     63  C   UNL     1       8.434   9.005  -1.728  1.00  0.00     0.045 A 
ATOM     64  C   UNL     1       9.318   9.454  -1.855  1.00  0.00     0.040 A 
ATOM     65  C   UNL     1       8.391   8.090  -1.326  1.00  0.00    -0.027 A 
ATOM     66  C   UNL     1      10.160   8.988  -1.581  1.00  0.00     0.042 A 
ATOM     67  C   UNL     1       9.233   7.624  -1.052  1.00  0.00     0.006 A 
ATOM     68  C   UNL     1       7.507   7.641  -1.199  1.00  0.00     0.046 C 
ATOM     69  C   UNL     1      10.117   8.074  -1.179  1.00  0.00     0.014 A 
BRANCH  66  70
ATOM     70  C   UNL     1      11.044   9.438  -1.708  1.00  0.00     0.255 C 
ATOM     71  O   UNL     1      11.758   9.343  -1.014  1.00  0.00    -0.269 OA
ATOM     72  N   UNL     1      11.214   9.983  -2.529  1.00  0.00    -0.321 N 
ATOM     73  H   UNL     1      10.641   9.856  -2.732  1.00  0.00     0.170 HD
BRANCH  72  74
ATOM     74  C   UNL     1      12.097  10.433  -2.657  1.00  0.00     0.050 A 
ATOM     75  C   UNL     1      12.213  11.163  -3.391  1.00  0.00     0.028 A 
ATOM     76  C   UNL     1      12.909  10.175  -2.057  1.00  0.00     0.028 A 
ATOM     77  C   UNL     1      13.092  11.619  -3.528  1.00  0.00     0.008 A 
ATOM     78  C   UNL     1      11.429  11.405  -3.964  1.00  0.00     0.105 A 
ATOM     79  C   UNL     1      13.824  10.650  -2.199  1.00  0.00     0.025 A 
ATOM     80  C   UNL     1      13.917  11.377  -2.939  1.00  0.00     0.102 A 
ATOM     81  C   UNL     1      13.188  12.317  -4.237  1.00  0.00     0.033 A 
ATOM     82  C   UNL     1      11.526  12.104  -4.673  1.00  0.00     0.046 A 
ATOM     83  C   UNL     1      12.405  12.560  -4.809  1.00  0.00     0.096 A 
BRANCH  78  84
ATOM     84  S   UNL     1      10.470  11.282  -4.216  1.00  0.00     0.295 S 
ATOM     85  O   UNL     1       9.510  11.158  -4.468  1.00  0.00    -0.194 OA
ATOM     86  O   UNL     1      10.730  10.554  -4.851  1.00  0.00    -0.194 OA
BRANCH  84  87
ATOM     87  O   UNL     1      10.210  12.009  -3.581  1.00  0.00    -0.282 OA
ATOM     88  H   UNL     1       9.822  12.457  -3.765  1.00  0.00     0.234 HD
ENDBRANCH  84  87
ENDBRANCH  78  84
BRANCH  80  89
ATOM     89  S   UNL     1      14.792  11.839  -3.084  1.00  0.00     0.295 S 
ATOM     90  O   UNL     1      15.059  11.131  -3.738  1.00  0.00    -0.194 OA
ATOM     91  O   UNL     1      14.525  12.547  -2.429  1.00  0.00    -0.194 OA
BRANCH  89  92
ATOM     92  O   UNL     1      15.667  12.302  -3.227  1.00  0.00    -0.282 OA
ATOM     93  H   UNL     1      15.916  12.642  -2.772  1.00  0.00     0.234 HD
ENDBRANCH  89  92
ENDBRANCH  80  89
BRANCH  83  94
ATOM     94  S   UNL     1      12.502  13.258  -5.518  1.00  0.00     0.294 S 
ATOM     95  O   UNL     1      12.782  12.556  -6.173  1.00  0.00    -0.194 OA
ATOM     96  O   UNL     1      12.221  13.961  -4.864  1.00  0.00    -0.194 OA
BRANCH  94  97
ATOM     97  O   UNL     1      12.598  13.957  -6.227  1.00  0.00    -0.282 OA
ATOM     98  H   UNL     1      12.399  13.843  -6.804  1.00  0.00     0.234 HD
ENDBRANCH  94  97
ENDBRANCH  83  94
ENDBRANCH  72  74
ENDBRANCH  66  70
ENDBRANCH  61  63
ENDBRANCH  56  59
ENDBRANCH   3  53
TORSDOF 22
ENDMDL
MODEL 5
REMARK VINA RESULT:   -11.330      1.872      5.574
REMARK INTER + INTRA:          18.665
REMARK INTER:                 -24.779
REMARK INTRA:                  43.444
REMARK UNBOUND:                42.579
REMARK SMILES Cc1ccc(C(=O)Nc2ccc(S(=O)(=O)O)c3cc(S(=O)(=O)O)cc(S(=O)(=O)O)c23)cc1NC(=O)c1cccc(NC(=O)Nc2cccc(C(=O)Nc3cc(C(=O)Nc4ccc(S(=O)(=O)O)c5cc(S(=O)(=O)O)cc(S(=O)(=O)O)c45)ccc3C)c2)c1
REMARK SMILES IDX 43 1 41 2 44 3 42 4 40 7 36 8 86 9 37 10 38 11 39 12 34 13
REMARK SMILES IDX 33 14 35 16 32 17 5 18 31 19 4 20 3 21 2 22 1 23 6 24 8 25
REMARK SMILES IDX 7 27 9 28 25 29 30 30 24 31 17 32 19 33 12 34 18 35 10 36
REMARK SMILES IDX 11 37 26 38 27 39 28 40 29 41 20 43 21 44 22 45 23 46 13 48
REMARK SMILES IDX 14 49 15 50 16 51 45 53 85 54 46 55 49 56 47 57 48 58 50 59
REMARK SMILES IDX 51 60 52 61 53 63 54 64 83 65 55 66 82 67 84 68 81 69 56 70
REMARK SMILES IDX 57 71 58 72 59 74 80 75 60 76 67 77 75 78 61 79 62 80 68 81
REMARK SMILES IDX 74 82 69 83 76 84 77 85 78 86 79 87 63 89 64 90 65 91 66 92
REMARK SMILES IDX 70 94 71 95 72 96 73 97
REMARK H PARENT 41 5 44 6 33 15 8 26 29 42 23 47 16 52 52 62 58 73 79 88 66 93
REMARK H PARENT 73 98
REMARK Flexibility Score: inf
ROOT
ATOM      1  O   UNL     1      10.804  12.464  -3.530  1.00  0.00    -0.248 OA
ATOM      2  N   UNL     1       9.926  11.407  -4.585  1.00  0.00    -0.308 N 
ATOM      3  N   UNL     1      11.565  11.041  -4.158  1.00  0.00    -0.308 N 
ATOM      4  C   UNL     1      10.765  11.637  -4.091  1.00  0.00     0.323 C 
ATOM      5  H   UNL     1       9.903  10.894  -4.932  1.00  0.00     0.171 HD
ATOM      6  H   UNL     1      11.541  10.528  -4.505  1.00  0.00     0.171 HD
ENDROOT
BRANCH   2   7
ATOM      7  C   UNL     1       9.127  12.003  -4.518  1.00  0.00     0.043 A 
ATOM      8  C   UNL     1       8.439  13.593  -4.478  1.00  0.00     0.042 A 
ATOM      9  C   UNL     1       9.239  12.997  -4.544  1.00  0.00     0.040 A 
ATOM     10  C   UNL     1       7.526  13.196  -4.384  1.00  0.00     0.014 A 
ATOM     11  C   UNL     1       7.414  12.202  -4.358  1.00  0.00     0.003 A 
ATOM     12  C   UNL     1       8.214  11.606  -4.425  1.00  0.00     0.026 A 
BRANCH   8  13
ATOM     13  C   UNL     1       8.552  14.585  -4.504  1.00  0.00     0.255 C 
ATOM     14  N   UNL     1       8.637  15.056  -5.382  1.00  0.00    -0.322 N 
ATOM     15  H   UNL     1       8.620  14.733  -5.911  1.00  0.00     0.170 HD
ATOM     16  O   UNL     1       8.581  15.108  -3.652  1.00  0.00    -0.269 OA
BRANCH  14  17
ATOM     17  C   UNL     1       8.751  16.049  -5.407  1.00  0.00     0.045 A 
ATOM     18  C   UNL     1       9.423  17.500  -4.743  1.00  0.00     0.042 A 
ATOM     19  C   UNL     1       9.310  16.507  -4.717  1.00  0.00     0.040 A 
ATOM     20  C   UNL     1       8.977  18.036  -5.459  1.00  0.00     0.014 A 
ATOM     21  C   UNL     1       8.417  17.578  -6.150  1.00  0.00     0.006 A 
ATOM     22  C   UNL     1       8.303  16.585  -6.125  1.00  0.00    -0.027 A 
ATOM     23  C   UNL     1       7.744  16.127  -6.815  1.00  0.00     0.046 C 
BRANCH  18  24
ATOM     24  C   UNL     1       9.983  17.958  -4.052  1.00  0.00     0.255 C 
ATOM     25  N   UNL     1      10.858  17.561  -3.775  1.00  0.00    -0.321 N 
ATOM     26  H   UNL     1      11.054  17.032  -4.031  1.00  0.00     0.170 HD
ATOM     27  O   UNL     1       9.667  18.812  -3.638  1.00  0.00    -0.269 OA
BRANCH  25  28
ATOM     28  C   UNL     1      11.418  18.019  -3.084  1.00  0.00     0.050 A 
ATOM     29  C   UNL     1      11.236  17.617  -1.380  1.00  0.00     0.105 A 
ATOM     30  C   UNL     1      11.692  18.157  -2.088  1.00  0.00     0.028 A 
ATOM     31  C   UNL     1      11.489  17.740  -0.419  1.00  0.00     0.046 A 
ATOM     32  C   UNL     1      12.400  18.817  -1.837  1.00  0.00     0.008 A 
ATOM     33  C   UNL     1      12.197  18.400  -0.168  1.00  0.00     0.096 A 
ATOM     34  C   UNL     1      12.882  19.385  -2.564  1.00  0.00     0.102 A 
ATOM     35  C   UNL     1      12.651  18.938  -0.877  1.00  0.00     0.033 A 
ATOM     36  C   UNL     1      11.888  18.577  -3.828  1.00  0.00     0.028 A 
ATOM     37  C   UNL     1      12.625  19.264  -3.566  1.00  0.00     0.025 A 
BRANCH  29  38
ATOM     38  S   UNL     1      10.564  16.925  -1.115  1.00  0.00     0.295 S 
ATOM     39  O   UNL     1       9.911  17.647  -0.886  1.00  0.00    -0.194 OA
ATOM     40  O   UNL     1      11.218  16.204  -1.345  1.00  0.00    -0.194 OA
BRANCH  38  41
ATOM     41  O   UNL     1       9.893  16.233  -0.851  1.00  0.00    -0.282 OA
ATOM     42  H   UNL     1       9.815  16.089  -0.253  1.00  0.00     0.234 HD
ENDBRANCH  38  41
ENDBRANCH  29  38
BRANCH  33  43
ATOM     43  S   UNL     1      12.449  18.521   0.791  1.00  0.00     0.294 S 
ATOM     44  O   UNL     1      11.852  19.321   0.848  1.00  0.00    -0.194 OA
ATOM     45  O   UNL     1      13.045  17.720   0.735  1.00  0.00    -0.194 OA
BRANCH  43  46
ATOM     46  O   UNL     1      12.701  18.641   1.751  1.00  0.00    -0.282 OA
ATOM     47  H   UNL     1      12.667  19.201   2.014  1.00  0.00     0.234 HD
ENDBRANCH  43  46
ENDBRANCH  33  43
BRANCH  34  48
ATOM     48  S   UNL     1      13.589  20.043  -2.301  1.00  0.00     0.295 S 
ATOM     49  O   UNL     1      12.896  20.761  -2.236  1.00  0.00    -0.194 OA
ATOM     50  O   UNL     1      14.282  19.325  -2.366  1.00  0.00    -0.194 OA
BRANCH  48  51
ATOM     51  O   UNL     1      14.294  20.701  -2.039  1.00  0.00    -0.282 OA
ATOM     52  H   UNL     1      14.507  21.109  -2.453  1.00  0.00     0.234 HD
ENDBRANCH  48  51
ENDBRANCH  34  48
ENDBRANCH  25  28
ENDBRANCH  18  24
ENDBRANCH  14  17
ENDBRANCH   8  13
ENDBRANCH   2   7
BRANCH   3  53
ATOM     53  C   UNL     1      12.403  11.272  -3.664  1.00  0.00     0.043 A 
ATOM     54  C   UNL     1      12.900  12.110  -3.886  1.00  0.00     0.040 A 
ATOM     55  C   UNL     1      12.744  10.663  -2.947  1.00  0.00     0.026 A 
ATOM     56  C   UNL     1      13.738  12.340  -3.391  1.00  0.00     0.042 A 
ATOM     57  C   UNL     1      13.583  10.893  -2.453  1.00  0.00     0.003 A 
ATOM     58  C   UNL     1      14.080  11.732  -2.675  1.00  0.00     0.014 A 
BRANCH  56  59
ATOM     59  C   UNL     1      14.235  13.179  -3.614  1.00  0.00     0.255 C 
ATOM     60  O   UNL     1      15.131  13.127  -4.055  1.00  0.00    -0.269 OA
ATOM     61  N   UNL     1      13.837  14.070  -3.394  1.00  0.00    -0.322 N 
ATOM     62  H   UNL     1      13.282  14.102  -3.120  1.00  0.00     0.170 HD
BRANCH  61  63
ATOM     63  C   UNL     1      14.334  14.908  -3.616  1.00  0.00     0.045 A 
ATOM     64  C   UNL     1      14.630  15.081  -4.556  1.00  0.00     0.040 A 
ATOM     65  C   UNL     1      14.536  15.575  -2.899  1.00  0.00    -0.027 A 
ATOM     66  C   UNL     1      15.127  15.920  -4.778  1.00  0.00     0.042 A 
ATOM     67  C   UNL     1      15.033  16.414  -3.121  1.00  0.00     0.006 A 
ATOM     68  C   UNL     1      14.240  15.403  -1.959  1.00  0.00     0.046 C 
ATOM     69  C   UNL     1      15.328  16.586  -4.060  1.00  0.00     0.014 A 
BRANCH  66  70
ATOM     70  C   UNL     1      15.423  16.092  -5.718  1.00  0.00     0.255 C 
ATOM     71  O   UNL     1      16.346  15.838  -6.006  1.00  0.00    -0.269 OA
ATOM     72  N   UNL     1      14.795  16.517  -6.369  1.00  0.00    -0.321 N 
ATOM     73  H   UNL     1      14.358  16.547  -5.929  1.00  0.00     0.170 HD
BRANCH  72  74
ATOM     74  C   UNL     1      15.089  16.689  -7.309  1.00  0.00     0.050 A 
ATOM     75  C   UNL     1      14.389  16.733  -8.078  1.00  0.00     0.028 A 
ATOM     76  C   UNL     1      16.099  16.827  -7.525  1.00  0.00     0.028 A 
ATOM     77  C   UNL     1      14.673  16.904  -9.022  1.00  0.00     0.008 A 
ATOM     78  C   UNL     1      13.421  16.600  -7.864  1.00  0.00     0.105 A 
ATOM     79  C   UNL     1      16.395  17.005  -8.507  1.00  0.00     0.025 A 
ATOM     80  C   UNL     1      15.677  17.044  -9.261  1.00  0.00     0.102 A 
ATOM     81  C   UNL     1      13.989  16.944  -9.750  1.00  0.00     0.033 A 
ATOM     82  C   UNL     1      12.737  16.639  -8.593  1.00  0.00     0.046 A 
ATOM     83  C   UNL     1      13.021  16.811  -9.536  1.00  0.00     0.096 A 
BRANCH  78  84
ATOM     84  S   UNL     1      12.698  16.425  -7.195  1.00  0.00     0.295 S 
ATOM     85  O   UNL     1      11.976  16.249  -6.527  1.00  0.00    -0.194 OA
ATOM     86  O   UNL     1      12.653  17.402  -6.987  1.00  0.00    -0.194 OA
BRANCH  84  87
ATOM     87  O   UNL     1      12.743  15.448  -7.403  1.00  0.00    -0.282 OA
ATOM     88  H   UNL     1      12.534  15.033  -6.992  1.00  0.00     0.234 HD
ENDBRANCH  84  87
ENDBRANCH  78  84
BRANCH  80  89
ATOM     89  S   UNL     1      15.951  17.215 -10.207  1.00  0.00     0.295 S 
ATOM     90  O   UNL     1      16.081  16.234 -10.348  1.00  0.00    -0.194 OA
ATOM     91  O   UNL     1      15.820  18.197 -10.067  1.00  0.00    -0.194 OA
BRANCH  89  92
ATOM     92  O   UNL     1      16.224  17.387 -11.154  1.00  0.00    -0.282 OA
ATOM     93  H   UNL     1      16.276  16.914 -11.552  1.00  0.00     0.234 HD
ENDBRANCH  89  92
ENDBRANCH  80  89
BRANCH  83  94
ATOM     94  S   UNL     1      12.338  16.850 -10.265  1.00  0.00     0.294 S 
ATOM     95  O   UNL     1      12.358  15.853 -10.337  1.00  0.00    -0.194 OA
ATOM     96  O   UNL     1      12.318  17.847 -10.193  1.00  0.00    -0.194 OA
BRANCH  94  97
ATOM     97  O   UNL     1      11.654  16.889 -10.993  1.00  0.00    -0.282 OA
ATOM     98  H   UNL     1      11.080  17.089 -10.870  1.00  0.00     0.234 HD
ENDBRANCH  94  97
ENDBRANCH  83  94
ENDBRANCH  72  74
ENDBRANCH  66  70
ENDBRANCH  61  63
ENDBRANCH  56  59
ENDBRANCH   3  53
TORSDOF 22
ENDMDL
MODEL 6
REMARK VINA RESULT:   -11.181      1.976      4.764
REMARK INTER + INTRA:          18.978
REMARK INTER:                 -25.813
REMARK INTRA:                  44.791
REMARK UNBOUND:                42.579
REMARK SMILES Cc1ccc(C(=O)Nc2ccc(S(=O)(=O)O)c3cc(S(=O)(=O)O)cc(S(=O)(=O)O)c23)cc1NC(=O)c1cccc(NC(=O)Nc2cccc(C(=O)Nc3cc(C(=O)Nc4ccc(S(=O)(=O)O)c5cc(S(=O)(=O)O)cc(S(=O)(=O)O)c45)ccc3C)c2)c1
REMARK SMILES IDX 43 1 41 2 44 3 42 4 40 7 36 8 86 9 37 10 38 11 39 12 34 13
REMARK SMILES IDX 33 14 35 16 32 17 5 18 31 19 4 20 3 21 2 22 1 23 6 24 8 25
REMARK SMILES IDX 7 27 9 28 25 29 30 30 24 31 17 32 19 33 12 34 18 35 10 36
REMARK SMILES IDX 11 37 26 38 27 39 28 40 29 41 20 43 21 44 22 45 23 46 13 48
REMARK SMILES IDX 14 49 15 50 16 51 45 53 85 54 46 55 49 56 47 57 48 58 50 59
REMARK SMILES IDX 51 60 52 61 53 63 54 64 83 65 55 66 82 67 84 68 81 69 56 70
REMARK SMILES IDX 57 71 58 72 59 74 80 75 60 76 67 77 75 78 61 79 62 80 68 81
REMARK SMILES IDX 74 82 69 83 76 84 77 85 78 86 79 87 63 89 64 90 65 91 66 92
REMARK SMILES IDX 70 94 71 95 72 96 73 97
REMARK H PARENT 41 5 44 6 33 15 8 26 29 42 23 47 16 52 52 62 58 73 79 88 66 93
REMARK H PARENT 73 98
REMARK Flexibility Score: inf
ROOT
ATOM      1  O   UNL     1      11.623  12.692  -3.551  1.00  0.00    -0.248 OA
ATOM      2  N   UNL     1      12.369  11.375  -4.393  1.00  0.00    -0.308 N 
ATOM      3  N   UNL     1      10.643  11.526  -4.376  1.00  0.00    -0.308 N 
ATOM      4  C   UNL     1      11.545  11.864  -4.107  1.00  0.00     0.323 C 
ATOM      5  H   UNL     1      12.320  10.861  -4.737  1.00  0.00     0.171 HD
ATOM      6  H   UNL     1      10.595  11.013  -4.720  1.00  0.00     0.171 HD
ENDROOT
BRANCH   2   7
ATOM      7  C   UNL     1      13.270  11.712  -4.124  1.00  0.00     0.043 A 
ATOM      8  C   UNL     1      14.414  13.008  -4.007  1.00  0.00     0.042 A 
ATOM      9  C   UNL     1      13.512  12.671  -4.277  1.00  0.00     0.040 A 
ATOM     10  C   UNL     1      15.075  12.387  -3.586  1.00  0.00     0.014 A 
ATOM     11  C   UNL     1      14.833  11.429  -3.433  1.00  0.00     0.003 A 
ATOM     12  C   UNL     1      13.931  11.091  -3.702  1.00  0.00     0.026 A 
BRANCH   8  13
ATOM     13  C   UNL     1      14.655  13.966  -4.160  1.00  0.00     0.255 C 
ATOM     14  N   UNL     1      14.158  14.689  -3.681  1.00  0.00    -0.322 N 
ATOM     15  H   UNL     1      13.700  14.544  -3.289  1.00  0.00     0.170 HD
ATOM     16  O   UNL     1      15.394  14.200  -4.793  1.00  0.00    -0.269 OA
BRANCH  14  17
ATOM     17  C   UNL     1      14.400  15.647  -3.835  1.00  0.00     0.045 A 
ATOM     18  C   UNL     1      14.612  16.987  -4.912  1.00  0.00     0.042 A 
ATOM     19  C   UNL     1      14.371  16.029  -4.758  1.00  0.00     0.040 A 
ATOM     20  C   UNL     1      14.883  17.564  -4.141  1.00  0.00     0.014 A 
ATOM     21  C   UNL     1      14.912  17.182  -3.217  1.00  0.00     0.006 A 
ATOM     22  C   UNL     1      14.671  16.224  -3.064  1.00  0.00    -0.027 A 
ATOM     23  C   UNL     1      14.700  15.843  -2.140  1.00  0.00     0.046 C 
BRANCH  18  24
ATOM     24  C   UNL     1      14.583  17.368  -5.836  1.00  0.00     0.255 C 
ATOM     25  N   UNL     1      14.719  16.772  -6.627  1.00  0.00    -0.321 N 
ATOM     26  H   UNL     1      14.822  16.166  -6.545  1.00  0.00     0.170 HD
ATOM     27  O   UNL     1      14.418  18.346  -5.969  1.00  0.00    -0.269 OA
BRANCH  25  28
ATOM     28  C   UNL     1      14.690  17.154  -7.551  1.00  0.00     0.050 A 
ATOM     29  C   UNL     1      13.186  17.161  -8.466  1.00  0.00     0.105 A 
ATOM     30  C   UNL     1      14.160  17.385  -8.418  1.00  0.00     0.028 A 
ATOM     31  C   UNL     1      12.665  17.378  -9.292  1.00  0.00     0.046 A 
ATOM     32  C   UNL     1      14.612  17.825  -9.194  1.00  0.00     0.008 A 
ATOM     33  C   UNL     1      13.117  17.818 -10.068  1.00  0.00     0.096 A 
ATOM     34  C   UNL     1      15.625  18.063  -9.157  1.00  0.00     0.102 A 
ATOM     35  C   UNL     1      14.090  18.041 -10.018  1.00  0.00     0.033 A 
ATOM     36  C   UNL     1      15.705  17.383  -7.493  1.00  0.00     0.028 A 
ATOM     37  C   UNL     1      16.175  17.841  -8.301  1.00  0.00     0.025 A 
BRANCH  29  38
ATOM     38  S   UNL     1      12.363  16.778  -8.046  1.00  0.00     0.295 S 
ATOM     39  O   UNL     1      12.652  15.860  -8.319  1.00  0.00    -0.194 OA
ATOM     40  O   UNL     1      12.075  17.696  -7.773  1.00  0.00    -0.194 OA
BRANCH  38  41
ATOM     41  O   UNL     1      11.541  16.396  -7.626  1.00  0.00    -0.282 OA
ATOM     42  H   UNL     1      11.587  16.048  -7.115  1.00  0.00     0.234 HD
ENDBRANCH  38  41
ENDBRANCH  29  38
BRANCH  33  43
ATOM     43  S   UNL     1      12.594  18.034 -10.893  1.00  0.00     0.294 S 
ATOM     44  O   UNL     1      12.718  17.096 -11.217  1.00  0.00    -0.194 OA
ATOM     45  O   UNL     1      12.471  18.971 -10.568  1.00  0.00    -0.194 OA
BRANCH  43  46
ATOM     46  O   UNL     1      12.072  18.251 -11.717  1.00  0.00    -0.282 OA
ATOM     47  H   UNL     1      11.458  18.330 -11.684  1.00  0.00     0.234 HD
ENDBRANCH  43  46
ENDBRANCH  33  43
BRANCH  34  48
ATOM     48  S   UNL     1      16.066  18.503  -9.940  1.00  0.00     0.295 S 
ATOM     49  O   UNL     1      16.278  17.605 -10.325  1.00  0.00    -0.194 OA
ATOM     50  O   UNL     1      15.854  19.402  -9.555  1.00  0.00    -0.194 OA
BRANCH  48  51
ATOM     51  O   UNL     1      16.508  18.942 -10.722  1.00  0.00    -0.282 OA
ATOM     52  H   UNL     1      16.737  19.515 -10.668  1.00  0.00     0.234 HD
ENDBRANCH  48  51
ENDBRANCH  34  48
ENDBRANCH  25  28
ENDBRANCH  18  24
ENDBRANCH  14  17
ENDBRANCH   8  13
ENDBRANCH   2   7
BRANCH   3  53
ATOM     53  C   UNL     1       9.820  12.016  -4.089  1.00  0.00     0.043 A 
ATOM     54  C   UNL     1       9.773  13.011  -4.178  1.00  0.00     0.040 A 
ATOM     55  C   UNL     1       9.043  11.510  -3.713  1.00  0.00     0.026 A 
ATOM     56  C   UNL     1       8.949  13.500  -3.892  1.00  0.00     0.042 A 
ATOM     57  C   UNL     1       8.219  12.000  -3.427  1.00  0.00     0.003 A 
ATOM     58  C   UNL     1       8.173  12.994  -3.516  1.00  0.00     0.014 A 
BRANCH  56  59
ATOM     59  C   UNL     1       8.903  14.495  -3.981  1.00  0.00     0.255 C 
ATOM     60  O   UNL     1       8.558  15.049  -3.223  1.00  0.00    -0.269 OA
ATOM     61  N   UNL     1       9.201  14.936  -4.827  1.00  0.00    -0.322 N 
ATOM     62  H   UNL     1       9.414  14.592  -5.297  1.00  0.00     0.170 HD
BRANCH  61  63
ATOM     63  C   UNL     1       9.154  15.931  -4.916  1.00  0.00     0.045 A 
ATOM     64  C   UNL     1       9.857  16.505  -4.496  1.00  0.00     0.040 A 
ATOM     65  C   UNL     1       8.404  16.353  -5.426  1.00  0.00    -0.027 A 
ATOM     66  C   UNL     1       9.810  17.500  -4.585  1.00  0.00     0.042 A 
ATOM     67  C   UNL     1       8.357  17.347  -5.515  1.00  0.00     0.006 A 
ATOM     68  C   UNL     1       7.701  15.779  -5.846  1.00  0.00     0.046 C 
ATOM     69  C   UNL     1       9.060  17.920  -5.094  1.00  0.00     0.014 A 
BRANCH  66  70
ATOM     70  C   UNL     1      10.513  18.073  -4.164  1.00  0.00     0.255 C 
ATOM     71  O   UNL     1      11.135  18.605  -4.739  1.00  0.00    -0.269 OA
ATOM     72  N   UNL     1      10.595  18.113  -3.168  1.00  0.00    -0.321 N 
ATOM     73  H   UNL     1      10.120  17.717  -3.113  1.00  0.00     0.170 HD
BRANCH  72  74
ATOM     74  C   UNL     1      11.298  18.686  -2.747  1.00  0.00     0.050 A 
ATOM     75  C   UNL     1      11.633  18.480  -1.782  1.00  0.00     0.028 A 
ATOM     76  C   UNL     1      11.701  19.492  -3.270  1.00  0.00     0.028 A 
ATOM     77  C   UNL     1      12.335  19.047  -1.352  1.00  0.00     0.008 A 
ATOM     78  C   UNL     1      11.242  17.705  -1.286  1.00  0.00     0.105 A 
ATOM     79  C   UNL     1      12.432  20.081  -2.822  1.00  0.00     0.025 A 
ATOM     80  C   UNL     1      12.752  19.858  -1.856  1.00  0.00     0.102 A 
ATOM     81  C   UNL     1      12.647  18.838  -0.425  1.00  0.00     0.033 A 
ATOM     82  C   UNL     1      11.554  17.496  -0.359  1.00  0.00     0.046 A 
ATOM     83  C   UNL     1      12.256  18.063   0.072  1.00  0.00     0.096 A 
BRANCH  78  84
ATOM     84  S   UNL     1      10.611  16.930  -1.248  1.00  0.00     0.295 S 
ATOM     85  O   UNL     1       9.979  16.156  -1.210  1.00  0.00    -0.194 OA
ATOM     86  O   UNL     1      11.329  16.328  -1.597  1.00  0.00    -0.194 OA
BRANCH  84  87
ATOM     87  O   UNL     1       9.892  17.533  -0.900  1.00  0.00    -0.282 OA
ATOM     88  H   UNL     1       9.459  17.753  -1.284  1.00  0.00     0.234 HD
ENDBRANCH  84  87
ENDBRANCH  78  84
BRANCH  80  89
ATOM     89  S   UNL     1      13.454  20.418  -1.416  1.00  0.00     0.295 S 
ATOM     90  O   UNL     1      14.165  19.822  -1.790  1.00  0.00    -0.194 OA
ATOM     91  O   UNL     1      12.743  21.014  -1.042  1.00  0.00    -0.194 OA
BRANCH  89  92
ATOM     92  O   UNL     1      14.155  20.979  -0.976  1.00  0.00    -0.282 OA
ATOM     93  H   UNL     1      13.991  21.416  -0.567  1.00  0.00     0.234 HD
ENDBRANCH  89  92
ENDBRANCH  80  89
BRANCH  83  94
ATOM     94  S   UNL     1      12.568  17.854   0.999  1.00  0.00     0.294 S 
ATOM     95  O   UNL     1      11.755  18.301   1.373  1.00  0.00    -0.194 OA
ATOM     96  O   UNL     1      13.380  17.407   0.625  1.00  0.00    -0.194 OA
BRANCH  94  97
ATOM     97  O   UNL     1      12.880  17.645   1.925  1.00  0.00    -0.282 OA
ATOM     98  H   UNL     1      13.216  17.135   2.032  1.00  0.00     0.234 HD
ENDBRANCH  94  97
ENDBRANCH  83  94
ENDBRANCH  72  74
ENDBRANCH  66  70
ENDBRANCH  61  63
ENDBRANCH  56  59
ENDBRANCH   3  53
TORSDOF 22
ENDMDL
MODEL 7
REMARK VINA RESULT:   -11.152      2.837      5.643
REMARK INTER + INTRA:          19.039
REMARK INTER:                 -26.638
REMARK INTRA:                  45.677
REMARK UNBOUND:                42.579
REMARK SMILES Cc1ccc(C(=O)Nc2ccc(S(=O)(=O)O)c3cc(S(=O)(=O)O)cc(S(=O)(=O)O)c23)cc1NC(=O)c1cccc(NC(=O)Nc2cccc(C(=O)Nc3cc(C(=O)Nc4ccc(S(=O)(=O)O)c5cc(S(=O)(=O)O)cc(S(=O)(=O)O)c45)ccc3C)c2)c1
REMARK SMILES IDX 43 1 41 2 44 3 42 4 40 7 36 8 86 9 37 10 38 11 39 12 34 13
REMARK SMILES IDX 33 14 35 16 32 17 5 18 31 19 4 20 3 21 2 22 1 23 6 24 8 25
REMARK SMILES IDX 7 27 9 28 25 29 30 30 24 31 17 32 19 33 12 34 18 35 10 36
REMARK SMILES IDX 11 37 26 38 27 39 28 40 29 41 20 43 21 44 22 45 23 46 13 48
REMARK SMILES IDX 14 49 15 50 16 51 45 53 85 54 46 55 49 56 47 57 48 58 50 59
REMARK SMILES IDX 51 60 52 61 53 63 54 64 83 65 55 66 82 67 84 68 81 69 56 70
REMARK SMILES IDX 57 71 58 72 59 74 80 75 60 76 67 77 75 78 61 79 62 80 68 81
REMARK SMILES IDX 74 82 69 83 76 84 77 85 78 86 79 87 63 89 64 90 65 91 66 92
REMARK SMILES IDX 70 94 71 95 72 96 73 97
REMARK H PARENT 41 5 44 6 33 15 8 26 29 42 23 47 16 52 52 62 58 73 79 88 66 93
REMARK H PARENT 73 98
REMARK Flexibility Score: inf
ROOT
ATOM      1  O   UNL     1       6.714   9.819  -2.856  1.00  0.00    -0.248 OA
ATOM      2  N   UNL     1       5.687  10.584  -4.023  1.00  0.00    -0.308 N 
ATOM      3  N   UNL     1       6.283   8.982  -4.310  1.00  0.00    -0.308 N 
ATOM      4  C   UNL     1       6.228   9.795  -3.730  1.00  0.00     0.323 C 
ATOM      5  H   UNL     1       5.386  10.568  -4.565  1.00  0.00     0.171 HD
ATOM      6  H   UNL     1       5.982   8.968  -4.852  1.00  0.00     0.171 HD
ENDROOT
BRANCH   2   7
ATOM      7  C   UNL     1       5.632  11.396  -3.443  1.00  0.00     0.043 A 
ATOM      8  C   UNL     1       6.198  12.977  -3.016  1.00  0.00     0.042 A 
ATOM      9  C   UNL     1       6.254  12.164  -3.597  1.00  0.00     0.040 A 
ATOM     10  C   UNL     1       5.521  13.021  -2.282  1.00  0.00     0.014 A 
ATOM     11  C   UNL     1       4.900  12.253  -2.128  1.00  0.00     0.003 A 
ATOM     12  C   UNL     1       4.955  11.440  -2.708  1.00  0.00     0.026 A 
BRANCH   8  13
ATOM     13  C   UNL     1       6.820  13.744  -3.170  1.00  0.00     0.255 C 
ATOM     14  N   UNL     1       7.231  13.881  -4.071  1.00  0.00    -0.322 N 
ATOM     15  H   UNL     1       7.101  13.490  -4.535  1.00  0.00     0.170 HD
ATOM     16  O   UNL     1       7.030  14.374  -2.423  1.00  0.00    -0.269 OA
BRANCH  14  17
ATOM     17  C   UNL     1       7.853  14.649  -4.225  1.00  0.00     0.045 A 
ATOM     18  C   UNL     1       9.185  15.628  -3.708  1.00  0.00     0.042 A 
ATOM     19  C   UNL     1       8.563  14.859  -3.554  1.00  0.00     0.040 A 
ATOM     20  C   UNL     1       9.096  16.185  -4.533  1.00  0.00     0.014 A 
ATOM     21  C   UNL     1       8.385  15.975  -5.204  1.00  0.00     0.006 A 
ATOM     22  C   UNL     1       7.763  15.207  -5.051  1.00  0.00    -0.027 A 
ATOM     23  C   UNL     1       7.053  14.997  -5.721  1.00  0.00     0.046 C 
BRANCH  18  24
ATOM     24  C   UNL     1       9.896  15.838  -3.036  1.00  0.00     0.255 C 
ATOM     25  N   UNL     1      10.141  16.789  -2.850  1.00  0.00    -0.321 N 
ATOM     26  H   UNL     1       9.853  17.248  -3.150  1.00  0.00     0.170 HD
ATOM     27  O   UNL     1      10.361  15.097  -2.552  1.00  0.00    -0.269 OA
BRANCH  25  28
ATOM     28  C   UNL     1      10.852  16.999  -2.178  1.00  0.00     0.050 A 
ATOM     29  C   UNL     1      12.528  17.187  -2.683  1.00  0.00     0.105 A 
ATOM     30  C   UNL     1      11.850  17.189  -1.948  1.00  0.00     0.028 A 
ATOM     31  C   UNL     1      13.490  17.368  -2.476  1.00  0.00     0.046 A 
ATOM     32  C   UNL     1      12.134  17.373  -1.006  1.00  0.00     0.008 A 
ATOM     33  C   UNL     1      13.774  17.551  -1.534  1.00  0.00     0.096 A 
ATOM     34  C   UNL     1      11.439  17.379  -0.231  1.00  0.00     0.102 A 
ATOM     35  C   UNL     1      13.095  17.553  -0.801  1.00  0.00     0.033 A 
ATOM     36  C   UNL     1      10.140  17.001  -1.418  1.00  0.00     0.028 A 
ATOM     37  C   UNL     1      10.435  17.191  -0.438  1.00  0.00     0.025 A 
BRANCH  29  38
ATOM     38  S   UNL     1      12.756  17.079  -3.651  1.00  0.00     0.295 S 
ATOM     39  O   UNL     1      12.467  18.021  -3.823  1.00  0.00    -0.194 OA
ATOM     40  O   UNL     1      13.046  16.138  -3.478  1.00  0.00    -0.194 OA
BRANCH  38  41
ATOM     41  O   UNL     1      12.984  16.972  -4.619  1.00  0.00    -0.282 OA
ATOM     42  H   UNL     1      13.549  17.127  -4.823  1.00  0.00     0.234 HD
ENDBRANCH  38  41
ENDBRANCH  29  38
BRANCH  33  43
ATOM     43  S   UNL     1      14.735  17.731  -1.329  1.00  0.00     0.294 S 
ATOM     44  O   UNL     1      14.583  18.709  -1.471  1.00  0.00    -0.194 OA
ATOM     45  O   UNL     1      14.887  16.753  -1.186  1.00  0.00    -0.194 OA
BRANCH  43  46
ATOM     46  O   UNL     1      15.697  17.911  -1.123  1.00  0.00    -0.282 OA
ATOM     47  H   UNL     1      15.994  18.375  -1.407  1.00  0.00     0.234 HD
ENDBRANCH  43  46
ENDBRANCH  33  43
BRANCH  34  48
ATOM     48  S   UNL     1      11.733  17.563   0.707  1.00  0.00     0.295 S 
ATOM     49  O   UNL     1      11.728  18.545   0.515  1.00  0.00    -0.194 OA
ATOM     50  O   UNL     1      11.739  16.582   0.899  1.00  0.00    -0.194 OA
BRANCH  48  51
ATOM     51  O   UNL     1      12.028  17.749   1.644  1.00  0.00    -0.282 OA
ATOM     52  H   UNL     1      12.165  17.280   2.025  1.00  0.00     0.234 HD
ENDBRANCH  48  51
ENDBRANCH  34  48
ENDBRANCH  25  28
ENDBRANCH  18  24
ENDBRANCH  14  17
ENDBRANCH   8  13
ENDBRANCH   2   7
BRANCH   3  53
ATOM     53  C   UNL     1       6.824   8.194  -4.017  1.00  0.00     0.043 A 
ATOM     54  C   UNL     1       7.744   8.328  -3.650  1.00  0.00     0.040 A 
ATOM     55  C   UNL     1       6.443   7.272  -4.090  1.00  0.00     0.026 A 
ATOM     56  C   UNL     1       8.284   7.539  -3.356  1.00  0.00     0.042 A 
ATOM     57  C   UNL     1       6.983   6.483  -3.796  1.00  0.00     0.003 A 
ATOM     58  C   UNL     1       7.904   6.616  -3.429  1.00  0.00     0.014 A 
BRANCH  56  59
ATOM     59  C   UNL     1       9.205   7.672  -2.989  1.00  0.00     0.255 C 
ATOM     60  O   UNL     1       9.999   7.337  -3.497  1.00  0.00    -0.269 OA
ATOM     61  N   UNL     1       9.332   8.140  -2.114  1.00  0.00    -0.322 N 
ATOM     62  H   UNL     1       8.840   8.347  -1.799  1.00  0.00     0.170 HD
BRANCH  61  63
ATOM     63  C   UNL     1      10.253   8.273  -1.748  1.00  0.00     0.045 A 
ATOM     64  C   UNL     1      10.908   8.849  -2.236  1.00  0.00     0.040 A 
ATOM     65  C   UNL     1      10.519   7.830  -0.891  1.00  0.00    -0.027 A 
ATOM     66  C   UNL     1      11.828   8.982  -1.869  1.00  0.00     0.042 A 
ATOM     67  C   UNL     1      11.439   7.963  -0.524  1.00  0.00     0.006 A 
ATOM     68  C   UNL     1       9.863   7.254  -0.402  1.00  0.00     0.046 C 
ATOM     69  C   UNL     1      12.094   8.540  -1.014  1.00  0.00     0.014 A 
BRANCH  66  70
ATOM     70  C   UNL     1      12.483   9.559  -2.359  1.00  0.00     0.255 C 
ATOM     71  O   UNL     1      13.442   9.282  -2.424  1.00  0.00    -0.269 OA
ATOM     72  N   UNL     1      12.178  10.411  -2.784  1.00  0.00    -0.321 N 
ATOM     73  H   UNL     1      11.600  10.304  -2.585  1.00  0.00     0.170 HD
BRANCH  72  74
ATOM     74  C   UNL     1      12.832  10.988  -3.273  1.00  0.00     0.050 A 
ATOM     75  C   UNL     1      12.499  11.662  -3.994  1.00  0.00     0.028 A 
ATOM     76  C   UNL     1      13.851  10.918  -3.066  1.00  0.00     0.028 A 
ATOM     77  C   UNL     1      13.145  12.243  -4.489  1.00  0.00     0.008 A 
ATOM     78  C   UNL     1      11.520  11.724  -4.188  1.00  0.00     0.105 A 
ATOM     79  C   UNL     1      14.523  11.523  -3.582  1.00  0.00     0.025 A 
ATOM     80  C   UNL     1      14.168  12.191  -4.298  1.00  0.00     0.102 A 
ATOM     81  C   UNL     1      12.811  12.886  -5.179  1.00  0.00     0.033 A 
ATOM     82  C   UNL     1      11.187  12.366  -4.877  1.00  0.00     0.046 A 
ATOM     83  C   UNL     1      11.832  12.948  -5.373  1.00  0.00     0.096 A 
BRANCH  78  84
ATOM     84  S   UNL     1      10.582  11.423  -4.014  1.00  0.00     0.295 S 
ATOM     85  O   UNL     1       9.645  11.123  -3.840  1.00  0.00    -0.194 OA
ATOM     86  O   UNL     1      10.512  12.080  -3.263  1.00  0.00    -0.194 OA
BRANCH  84  87
ATOM     87  O   UNL     1      10.653  10.767  -4.765  1.00  0.00    -0.282 OA
ATOM     88  H   UNL     1      10.436  10.191  -4.694  1.00  0.00     0.234 HD
ENDBRANCH  84  87
ENDBRANCH  78  84
BRANCH  80  89
ATOM     89  S   UNL     1      14.805  12.776  -4.799  1.00  0.00     0.295 S 
ATOM     90  O   UNL     1      14.729  13.472  -4.085  1.00  0.00    -0.194 OA
ATOM     91  O   UNL     1      14.881  12.081  -5.514  1.00  0.00    -0.194 OA
BRANCH  89  92
ATOM     92  O   UNL     1      15.442  13.362  -5.301  1.00  0.00    -0.282 OA
ATOM     93  H   UNL     1      15.225  13.818  -5.661  1.00  0.00     0.234 HD
ENDBRANCH  89  92
ENDBRANCH  80  89
BRANCH  83  94
ATOM     94  S   UNL     1      11.499  13.591  -6.062  1.00  0.00     0.294 S 
ATOM     95  O   UNL     1      11.210  12.825  -6.637  1.00  0.00    -0.194 OA
ATOM     96  O   UNL     1      11.787  14.357  -5.488  1.00  0.00    -0.194 OA
BRANCH  94  97
ATOM     97  O   UNL     1      11.165  14.234  -6.752  1.00  0.00    -0.282 OA
ATOM     98  H   UNL     1      11.541  14.674  -6.973  1.00  0.00     0.234 HD
ENDBRANCH  94  97
ENDBRANCH  83  94
ENDBRANCH  72  74
ENDBRANCH  66  70
ENDBRANCH  61  63
ENDBRANCH  56  59
ENDBRANCH   3  53
TORSDOF 22
ENDMDL
MODEL 8
REMARK VINA RESULT:   -11.141      2.679      4.845
REMARK INTER + INTRA:          19.064
REMARK INTER:                 -26.364
REMARK INTRA:                  45.429
REMARK UNBOUND:                42.579
REMARK SMILES Cc1ccc(C(=O)Nc2ccc(S(=O)(=O)O)c3cc(S(=O)(=O)O)cc(S(=O)(=O)O)c23)cc1NC(=O)c1cccc(NC(=O)Nc2cccc(C(=O)Nc3cc(C(=O)Nc4ccc(S(=O)(=O)O)c5cc(S(=O)(=O)O)cc(S(=O)(=O)O)c45)ccc3C)c2)c1
REMARK SMILES IDX 43 1 41 2 44 3 42 4 40 7 36 8 86 9 37 10 38 11 39 12 34 13
REMARK SMILES IDX 33 14 35 16 32 17 5 18 31 19 4 20 3 21 2 22 1 23 6 24 8 25
REMARK SMILES IDX 7 27 9 28 25 29 30 30 24 31 17 32 19 33 12 34 18 35 10 36
REMARK SMILES IDX 11 37 26 38 27 39 28 40 29 41 20 43 21 44 22 45 23 46 13 48
REMARK SMILES IDX 14 49 15 50 16 51 45 53 85 54 46 55 49 56 47 57 48 58 50 59
REMARK SMILES IDX 51 60 52 61 53 63 54 64 83 65 55 66 82 67 84 68 81 69 56 70
REMARK SMILES IDX 57 71 58 72 59 74 80 75 60 76 67 77 75 78 61 79 62 80 68 81
REMARK SMILES IDX 74 82 69 83 76 84 77 85 78 86 79 87 63 89 64 90 65 91 66 92
REMARK SMILES IDX 70 94 71 95 72 96 73 97
REMARK H PARENT 41 5 44 6 33 15 8 26 29 42 23 47 16 52 52 62 58 73 79 88 66 93
REMARK H PARENT 73 98
REMARK Flexibility Score: inf
ROOT
ATOM      1  O   UNL     1       6.480  13.669  -3.303  1.00  0.00    -0.248 OA
ATOM      2  N   UNL     1       6.030  13.763  -4.973  1.00  0.00    -0.308 N 
ATOM      3  N   UNL     1       5.688  12.329  -4.063  1.00  0.00    -0.308 N 
ATOM      4  C   UNL     1       6.066  13.254  -4.113  1.00  0.00     0.323 C 
ATOM      5  H   UNL     1       5.773  13.505  -5.475  1.00  0.00     0.171 HD
ATOM      6  H   UNL     1       5.431  12.072  -4.565  1.00  0.00     0.171 HD
ENDROOT
BRANCH   2   7
ATOM      7  C   UNL     1       6.407  14.687  -5.023  1.00  0.00     0.043 A 
ATOM      8  C   UNL     1       7.771  15.756  -4.987  1.00  0.00     0.042 A 
ATOM      9  C   UNL     1       7.393  14.831  -4.936  1.00  0.00     0.040 A 
ATOM     10  C   UNL     1       7.162  16.537  -5.123  1.00  0.00     0.014 A 
ATOM     11  C   UNL     1       6.176  16.394  -5.210  1.00  0.00     0.003 A 
ATOM     12  C   UNL     1       5.799  15.469  -5.159  1.00  0.00     0.026 A 
BRANCH   8  13
ATOM     13  C   UNL     1       8.756  15.898  -4.900  1.00  0.00     0.255 C 
ATOM     14  N   UNL     1       9.117  16.453  -4.151  1.00  0.00    -0.322 N 
ATOM     15  H   UNL     1       8.731  16.709  -3.739  1.00  0.00     0.170 HD
ATOM     16  O   UNL     1       9.380  15.486  -5.564  1.00  0.00    -0.269 OA
BRANCH  14  17
ATOM     17  C   UNL     1      10.104  16.595  -4.066  1.00  0.00     0.045 A 
ATOM     18  C   UNL     1      11.625  17.026  -4.773  1.00  0.00     0.042 A 
ATOM     19  C   UNL     1      10.638  16.884  -4.859  1.00  0.00     0.040 A 
ATOM     20  C   UNL     1      12.076  16.878  -3.893  1.00  0.00     0.014 A 
ATOM     21  C   UNL     1      11.541  16.589  -3.099  1.00  0.00     0.006 A 
ATOM     22  C   UNL     1      10.555  16.447  -3.185  1.00  0.00    -0.027 A 
ATOM     23  C   UNL     1      10.021  16.158  -2.391  1.00  0.00     0.046 C 
BRANCH  18  24
ATOM     24  C   UNL     1      12.159  17.315  -5.567  1.00  0.00     0.255 C 
ATOM     25  N   UNL     1      12.400  16.652  -6.276  1.00  0.00    -0.321 N 
ATOM     26  H   UNL     1      12.218  16.062  -6.224  1.00  0.00     0.170 HD
ATOM     27  O   UNL     1      12.453  18.267  -5.652  1.00  0.00    -0.269 OA
BRANCH  25  28
ATOM     28  C   UNL     1      12.934  16.942  -7.071  1.00  0.00     0.050 A 
ATOM     29  C   UNL     1      14.687  16.777  -7.074  1.00  0.00     0.105 A 
ATOM     30  C   UNL     1      13.853  17.059  -7.548  1.00  0.00     0.028 A 
ATOM     31  C   UNL     1      15.576  16.884  -7.521  1.00  0.00     0.046 A 
ATOM     32  C   UNL     1      13.907  17.448  -8.468  1.00  0.00     0.008 A 
ATOM     33  C   UNL     1      15.630  17.273  -8.441  1.00  0.00     0.096 A 
ATOM     34  C   UNL     1      13.046  17.746  -8.973  1.00  0.00     0.102 A 
ATOM     35  C   UNL     1      14.795  17.555  -8.913  1.00  0.00     0.033 A 
ATOM     36  C   UNL     1      12.061  17.233  -7.558  1.00  0.00     0.028 A 
ATOM     37  C   UNL     1      12.117  17.638  -8.515  1.00  0.00     0.025 A 
BRANCH  29  38
ATOM     38  S   UNL     1      15.137  16.390  -6.269  1.00  0.00     0.295 S 
ATOM     39  O   UNL     1      15.336  17.313  -5.938  1.00  0.00    -0.194 OA
ATOM     40  O   UNL     1      14.938  15.468  -6.602  1.00  0.00    -0.194 OA
BRANCH  38  41
ATOM     41  O   UNL     1      15.588  16.003  -5.465  1.00  0.00    -0.282 OA
ATOM     42  H   UNL     1      15.426  16.193  -4.898  1.00  0.00     0.234 HD
ENDBRANCH  38  41
ENDBRANCH  29  38
BRANCH  33  43
ATOM     43  S   UNL     1      16.518  17.380  -8.886  1.00  0.00     0.294 S 
ATOM     44  O   UNL     1      16.480  16.428  -9.191  1.00  0.00    -0.194 OA
ATOM     45  O   UNL     1      16.556  18.331  -8.580  1.00  0.00    -0.194 OA
BRANCH  43  46
ATOM     46  O   UNL     1      17.407  17.487  -9.331  1.00  0.00    -0.282 OA
ATOM     47  H   UNL     1      17.550  18.019  -9.615  1.00  0.00     0.234 HD
ENDBRANCH  43  46
ENDBRANCH  33  43
BRANCH  34  48
ATOM     48  S   UNL     1      13.113  18.134  -9.893  1.00  0.00     0.295 S 
ATOM     49  O   UNL     1      13.031  17.217 -10.285  1.00  0.00    -0.194 OA
ATOM     50  O   UNL     1      13.194  19.051  -9.502  1.00  0.00    -0.194 OA
BRANCH  48  51
ATOM     51  O   UNL     1      13.179  18.521 -10.813  1.00  0.00    -0.282 OA
ATOM     52  H   UNL     1      13.116  18.154 -11.309  1.00  0.00     0.234 HD
ENDBRANCH  48  51
ENDBRANCH  34  48
ENDBRANCH  25  28
ENDBRANCH  18  24
ENDBRANCH  14  17
ENDBRANCH   8  13
ENDBRANCH   2   7
BRANCH   3  53
ATOM     53  C   UNL     1       5.725  11.820  -3.203  1.00  0.00     0.043 A 
ATOM     54  C   UNL     1       6.573  11.371  -2.923  1.00  0.00     0.040 A 
ATOM     55  C   UNL     1       4.912  11.761  -2.623  1.00  0.00     0.026 A 
ATOM     56  C   UNL     1       6.608  10.862  -2.063  1.00  0.00     0.042 A 
ATOM     57  C   UNL     1       4.948  11.252  -1.762  1.00  0.00     0.003 A 
ATOM     58  C   UNL     1       5.796  10.803  -1.482  1.00  0.00     0.014 A 
BRANCH  56  59
ATOM     59  C   UNL     1       7.457  10.413  -1.782  1.00  0.00     0.255 C 
ATOM     60  O   UNL     1       8.206  10.953  -1.399  1.00  0.00    -0.269 OA
ATOM     61  N   UNL     1       7.557   9.423  -1.885  1.00  0.00    -0.322 N 
ATOM     62  H   UNL     1       7.092   9.088  -2.123  1.00  0.00     0.170 HD
BRANCH  61  63
ATOM     63  C   UNL     1       8.405   8.974  -1.605  1.00  0.00     0.045 A 
ATOM     64  C   UNL     1       9.284   9.429  -1.750  1.00  0.00     0.040 A 
ATOM     65  C   UNL     1       8.375   8.069  -1.180  1.00  0.00    -0.027 A 
ATOM     66  C   UNL     1      10.132   8.979  -1.470  1.00  0.00     0.042 A 
ATOM     67  C   UNL     1       9.223   7.620  -0.899  1.00  0.00     0.006 A 
ATOM     68  C   UNL     1       7.496   7.615  -1.034  1.00  0.00     0.046 C 
ATOM     69  C   UNL     1      10.101   8.076  -1.045  1.00  0.00     0.014 A 
BRANCH  66  70
ATOM     70  C   UNL     1      11.010   9.435  -1.616  1.00  0.00     0.255 C 
ATOM     71  O   UNL     1      11.686   9.465  -0.880  1.00  0.00    -0.269 OA
ATOM     72  N   UNL     1      11.212   9.860  -2.498  1.00  0.00    -0.321 N 
ATOM     73  H   UNL     1      10.655   9.687  -2.710  1.00  0.00     0.170 HD
BRANCH  72  74
ATOM     74  C   UNL     1      12.090  10.316  -2.644  1.00  0.00     0.050 A 
ATOM     75  C   UNL     1      12.196  11.017  -3.407  1.00  0.00     0.028 A 
ATOM     76  C   UNL     1      12.905  10.093  -2.034  1.00  0.00     0.028 A 
ATOM     77  C   UNL     1      13.070  11.478  -3.562  1.00  0.00     0.008 A 
ATOM     78  C   UNL     1      11.410  11.226  -3.989  1.00  0.00     0.105 A 
ATOM     79  C   UNL     1      13.814  10.573  -2.196  1.00  0.00     0.025 A 
ATOM     80  C   UNL     1      13.898  11.270  -2.965  1.00  0.00     0.102 A 
ATOM     81  C   UNL     1      13.158  12.149  -4.299  1.00  0.00     0.033 A 
ATOM     82  C   UNL     1      11.498  11.897  -4.725  1.00  0.00     0.046 A 
ATOM     83  C   UNL     1      12.372  12.358  -4.880  1.00  0.00     0.096 A 
BRANCH  78  84
ATOM     84  S   UNL     1      10.452  11.081  -4.235  1.00  0.00     0.295 S 
ATOM     85  O   UNL     1       9.494  10.936  -4.482  1.00  0.00    -0.194 OA
ATOM     86  O   UNL     1      10.718  10.313  -4.818  1.00  0.00    -0.194 OA
BRANCH  84  87
ATOM     87  O   UNL     1      10.186  11.849  -3.653  1.00  0.00    -0.282 OA
ATOM     88  H   UNL     1       9.906  11.743  -3.110  1.00  0.00     0.234 HD
ENDBRANCH  84  87
ENDBRANCH  78  84
BRANCH  80  89
ATOM     89  S   UNL     1      14.767  11.737  -3.128  1.00  0.00     0.295 S 
ATOM     90  O   UNL     1      14.512  12.444  -2.468  1.00  0.00    -0.194 OA
ATOM     91  O   UNL     1      15.022  11.030  -3.788  1.00  0.00    -0.194 OA
BRANCH  89  92
ATOM     92  O   UNL     1      15.637  12.203  -3.292  1.00  0.00    -0.282 OA
ATOM     93  H   UNL     1      15.990  12.377  -2.812  1.00  0.00     0.234 HD
ENDBRANCH  89  92
ENDBRANCH  80  89
BRANCH  83  94
ATOM     94  S   UNL     1      12.459  13.029  -5.617  1.00  0.00     0.294 S 
ATOM     95  O   UNL     1      12.761  12.306  -6.239  1.00  0.00    -0.194 OA
ATOM     96  O   UNL     1      12.157  13.751  -4.995  1.00  0.00    -0.194 OA
BRANCH  94  97
ATOM     97  O   UNL     1      12.547  13.700  -6.353  1.00  0.00    -0.282 OA
ATOM     98  H   UNL     1      13.056  13.707  -6.707  1.00  0.00     0.234 HD
ENDBRANCH  94  97
ENDBRANCH  83  94
ENDBRANCH  72  74
ENDBRANCH  66  70
ENDBRANCH  61  63
ENDBRANCH  56  59
ENDBRANCH   3  53
TORSDOF 22
ENDMDL
MODEL 9
REMARK VINA RESULT:   -11.026      1.962      5.467
REMARK INTER + INTRA:          19.307
REMARK INTER:                 -23.213
REMARK INTRA:                  42.520
REMARK UNBOUND:                42.579
REMARK SMILES Cc1ccc(C(=O)Nc2ccc(S(=O)(=O)O)c3cc(S(=O)(=O)O)cc(S(=O)(=O)O)c23)cc1NC(=O)c1cccc(NC(=O)Nc2cccc(C(=O)Nc3cc(C(=O)Nc4ccc(S(=O)(=O)O)c5cc(S(=O)(=O)O)cc(S(=O)(=O)O)c45)ccc3C)c2)c1
REMARK SMILES IDX 43 1 41 2 44 3 42 4 40 7 36 8 86 9 37 10 38 11 39 12 34 13
REMARK SMILES IDX 33 14 35 16 32 17 5 18 31 19 4 20 3 21 2 22 1 23 6 24 8 25
REMARK SMILES IDX 7 27 9 28 25 29 30 30 24 31 17 32 19 33 12 34 18 35 10 36
REMARK SMILES IDX 11 37 26 38 27 39 28 40 29 41 20 43 21 44 22 45 23 46 13 48
REMARK SMILES IDX 14 49 15 50 16 51 45 53 85 54 46 55 49 56 47 57 48 58 50 59
REMARK SMILES IDX 51 60 52 61 53 63 54 64 83 65 55 66 82 67 84 68 81 69 56 70
REMARK SMILES IDX 57 71 58 72 59 74 80 75 60 76 67 77 75 78 61 79 62 80 68 81
REMARK SMILES IDX 74 82 69 83 76 84 77 85 78 86 79 87 63 89 64 90 65 91 66 92
REMARK SMILES IDX 70 94 71 95 72 96 73 97
REMARK H PARENT 41 5 44 6 33 15 8 26 29 42 23 47 16 52 52 62 58 73 79 88 66 93
REMARK H PARENT 73 98
REMARK Flexibility Score: inf
ROOT
ATOM      1  O   UNL     1      11.042  12.351  -3.316  1.00  0.00    -0.248 OA
ATOM      2  N   UNL     1      10.208  11.257  -4.368  1.00  0.00    -0.308 N 
ATOM      3  N   UNL     1      11.885  11.006  -4.011  1.00  0.00    -0.308 N 
ATOM      4  C   UNL     1      11.045  11.538  -3.898  1.00  0.00     0.323 C 
ATOM      5  H   UNL     1      10.210  10.753  -4.729  1.00  0.00     0.171 HD
ATOM      6  H   UNL     1      11.886  10.503  -4.372  1.00  0.00     0.171 HD
ENDROOT
BRANCH   2   7
ATOM      7  C   UNL     1       9.369  11.788  -4.256  1.00  0.00     0.043 A 
ATOM      8  C   UNL     1       8.542  13.311  -4.274  1.00  0.00     0.042 A 
ATOM      9  C   UNL     1       9.382  12.780  -4.386  1.00  0.00     0.040 A 
ATOM     10  C   UNL     1       7.689  12.850  -4.030  1.00  0.00     0.014 A 
ATOM     11  C   UNL     1       7.675  11.859  -3.900  1.00  0.00     0.003 A 
ATOM     12  C   UNL     1       8.515  11.328  -4.012  1.00  0.00     0.026 A 
BRANCH   8  13
ATOM     13  C   UNL     1       8.557  14.301  -4.405  1.00  0.00     0.255 C 
ATOM     14  N   UNL     1       8.843  14.686  -5.282  1.00  0.00    -0.322 N 
ATOM     15  H   UNL     1       9.011  14.311  -5.746  1.00  0.00     0.170 HD
ATOM     16  O   UNL     1       8.285  14.908  -3.657  1.00  0.00    -0.269 OA
BRANCH  14  17
ATOM     17  C   UNL     1       8.857  15.677  -5.412  1.00  0.00     0.045 A 
ATOM     18  C   UNL     1       9.371  17.251  -4.902  1.00  0.00     0.042 A 
ATOM     19  C   UNL     1       9.357  16.259  -4.772  1.00  0.00     0.040 A 
ATOM     20  C   UNL     1       8.885  17.660  -5.673  1.00  0.00     0.014 A 
ATOM     21  C   UNL     1       8.384  17.079  -6.314  1.00  0.00     0.006 A 
ATOM     22  C   UNL     1       8.370  16.087  -6.184  1.00  0.00    -0.027 A 
ATOM     23  C   UNL     1       7.869  15.505  -6.825  1.00  0.00     0.046 C 
BRANCH  18  24
ATOM     24  C   UNL     1       9.872  17.832  -4.260  1.00  0.00     0.255 C 
ATOM     25  N   UNL     1      10.837  17.651  -4.071  1.00  0.00    -0.321 N 
ATOM     26  H   UNL     1      11.125  17.179  -4.350  1.00  0.00     0.170 HD
ATOM     27  O   UNL     1       9.408  18.594  -3.809  1.00  0.00    -0.269 OA
BRANCH  25  28
ATOM     28  C   UNL     1      11.338  18.233  -3.430  1.00  0.00     0.050 A 
ATOM     29  C   UNL     1      12.325  19.566  -4.019  1.00  0.00     0.105 A 
ATOM     30  C   UNL     1      11.975  19.037  -3.245  1.00  0.00     0.028 A 
ATOM     31  C   UNL     1      12.937  20.341  -3.857  1.00  0.00     0.046 A 
ATOM     32  C   UNL     1      12.237  19.281  -2.312  1.00  0.00     0.008 A 
ATOM     33  C   UNL     1      13.200  20.585  -2.923  1.00  0.00     0.096 A 
ATOM     34  C   UNL     1      11.881  18.738  -1.498  1.00  0.00     0.102 A 
ATOM     35  C   UNL     1      12.849  20.054  -2.151  1.00  0.00     0.033 A 
ATOM     36  C   UNL     1      10.970  17.676  -2.630  1.00  0.00     0.028 A 
ATOM     37  C   UNL     1      11.243  17.930  -1.658  1.00  0.00     0.025 A 
BRANCH  29  38
ATOM     38  S   UNL     1      12.376  19.732  -5.004  1.00  0.00     0.295 S 
ATOM     39  O   UNL     1      13.106  19.052  -5.079  1.00  0.00    -0.194 OA
ATOM     40  O   UNL     1      11.645  20.410  -4.927  1.00  0.00    -0.194 OA
BRANCH  38  41
ATOM     41  O   UNL     1      12.426  19.897  -5.989  1.00  0.00    -0.282 OA
ATOM     42  H   UNL     1      12.774  20.361  -6.208  1.00  0.00     0.234 HD
ENDBRANCH  38  41
ENDBRANCH  29  38
BRANCH  33  43
ATOM     43  S   UNL     1      13.811  21.359  -2.763  1.00  0.00     0.294 S 
ATOM     44  O   UNL     1      14.603  20.761  -2.891  1.00  0.00    -0.194 OA
ATOM     45  O   UNL     1      13.020  21.956  -2.634  1.00  0.00    -0.194 OA
BRANCH  43  46
ATOM     46  O   UNL     1      14.423  22.133  -2.602  1.00  0.00    -0.282 OA
ATOM     47  H   UNL     1      14.632  22.251  -2.031  1.00  0.00     0.234 HD
ENDBRANCH  43  46
ENDBRANCH  33  43
BRANCH  34  48
ATOM     48  S   UNL     1      12.150  18.991  -0.568  1.00  0.00     0.295 S 
ATOM     49  O   UNL     1      12.950  18.396  -0.638  1.00  0.00    -0.194 OA
ATOM     50  O   UNL     1      11.349  19.586  -0.498  1.00  0.00    -0.194 OA
BRANCH  48  51
ATOM     51  O   UNL     1      12.419  19.243   0.361  1.00  0.00    -0.282 OA
ATOM     52  H   UNL     1      12.310  18.855   0.832  1.00  0.00     0.234 HD
ENDBRANCH  48  51
ENDBRANCH  34  48
ENDBRANCH  25  28
ENDBRANCH  18  24
ENDBRANCH  14  17
ENDBRANCH   8  13
ENDBRANCH   2   7
BRANCH   3  53
ATOM     53  C   UNL     1      12.721  11.288  -3.541  1.00  0.00     0.043 A 
ATOM     54  C   UNL     1      13.134  12.175  -3.743  1.00  0.00     0.040 A 
ATOM     55  C   UNL     1      13.145  10.681  -2.868  1.00  0.00     0.026 A 
ATOM     56  C   UNL     1      13.971  12.456  -3.273  1.00  0.00     0.042 A 
ATOM     57  C   UNL     1      13.981  10.961  -2.398  1.00  0.00     0.003 A 
ATOM     58  C   UNL     1      14.394  11.849  -2.600  1.00  0.00     0.014 A 
BRANCH  56  59
ATOM     59  C   UNL     1      14.384  13.344  -3.475  1.00  0.00     0.255 C 
ATOM     60  O   UNL     1      15.307  13.390  -3.857  1.00  0.00    -0.269 OA
ATOM     61  N   UNL     1      13.875  14.186  -3.295  1.00  0.00    -0.322 N 
ATOM     62  H   UNL     1      13.302  14.157  -3.058  1.00  0.00     0.170 HD
BRANCH  61  63
ATOM     63  C   UNL     1      14.288  15.073  -3.497  1.00  0.00     0.045 A 
ATOM     64  C   UNL     1      14.604  15.279  -4.423  1.00  0.00     0.040 A 
ATOM     65  C   UNL     1      14.386  15.756  -2.772  1.00  0.00    -0.027 A 
ATOM     66  C   UNL     1      15.017  16.167  -4.625  1.00  0.00     0.042 A 
ATOM     67  C   UNL     1      14.799  16.644  -2.975  1.00  0.00     0.006 A 
ATOM     68  C   UNL     1      14.070  15.550  -1.846  1.00  0.00     0.046 C 
ATOM     69  C   UNL     1      15.114  16.849  -3.901  1.00  0.00     0.014 A 
BRANCH  66  70
ATOM     70  C   UNL     1      15.332  16.372  -5.552  1.00  0.00     0.255 C 
ATOM     71  O   UNL     1      16.299  16.270  -5.786  1.00  0.00    -0.269 OA
ATOM     72  N   UNL     1      14.680  16.680  -6.245  1.00  0.00    -0.321 N 
ATOM     73  H   UNL     1      14.220  16.643  -5.829  1.00  0.00     0.170 HD
BRANCH  72  74
ATOM     74  C   UNL     1      14.995  16.885  -7.172  1.00  0.00     0.050 A 
ATOM     75  C   UNL     1      14.344  16.790  -7.979  1.00  0.00     0.028 A 
ATOM     76  C   UNL     1      15.975  17.196  -7.336  1.00  0.00     0.028 A 
ATOM     77  C   UNL     1      14.648  16.993  -8.910  1.00  0.00     0.008 A 
ATOM     78  C   UNL     1      13.404  16.491  -7.815  1.00  0.00     0.105 A 
ATOM     79  C   UNL     1      16.292  17.407  -8.304  1.00  0.00     0.025 A 
ATOM     80  C   UNL     1      15.624  17.305  -9.097  1.00  0.00     0.102 A 
ATOM     81  C   UNL     1      14.013  16.896  -9.676  1.00  0.00     0.033 A 
ATOM     82  C   UNL     1      12.768  16.395  -8.581  1.00  0.00     0.046 A 
ATOM     83  C   UNL     1      13.073  16.597  -9.511  1.00  0.00     0.096 A 
BRANCH  78  84
ATOM     84  S   UNL     1      12.686  16.201  -7.182  1.00  0.00     0.295 S 
ATOM     85  O   UNL     1      11.967  15.911  -6.550  1.00  0.00    -0.194 OA
ATOM     86  O   UNL     1      12.954  15.247  -7.314  1.00  0.00    -0.194 OA
BRANCH  84  87
ATOM     87  O   UNL     1      12.417  17.155  -7.050  1.00  0.00    -0.282 OA
ATOM     88  H   UNL     1      12.828  17.566  -6.834  1.00  0.00     0.234 HD
ENDBRANCH  84  87
ENDBRANCH  78  84
BRANCH  80  89
ATOM     89  S   UNL     1      15.919  17.505 -10.032  1.00  0.00     0.295 S 
ATOM     90  O   UNL     1      15.607  18.450  -9.929  1.00  0.00    -0.194 OA
ATOM     91  O   UNL     1      16.230  16.561 -10.135  1.00  0.00    -0.194 OA
BRANCH  89  92
ATOM     92  O   UNL     1      16.213  17.705 -10.967  1.00  0.00    -0.282 OA
ATOM     93  H   UNL     1      16.100  18.262 -11.214  1.00  0.00     0.234 HD
ENDBRANCH  89  92
ENDBRANCH  80  89
BRANCH  83  94
ATOM     94  S   UNL     1      12.437  16.501 -10.277  1.00  0.00     0.294 S 
ATOM     95  O   UNL     1      12.809  15.593 -10.471  1.00  0.00    -0.194 OA
ATOM     96  O   UNL     1      12.066  17.409 -10.083  1.00  0.00    -0.194 OA
BRANCH  94  97
ATOM     97  O   UNL     1      11.802  16.405 -11.043  1.00  0.00    -0.282 OA
ATOM     98  H   UNL     1      11.714  15.850 -11.306  1.00  0.00     0.234 HD
ENDBRANCH  94  97
ENDBRANCH  83  94
ENDBRANCH  72  74
ENDBRANCH  66  70
ENDBRANCH  61  63
ENDBRANCH  56  59
ENDBRANCH   3  53
TORSDOF 22
ENDMDL
